<?xml version="1.0" encoding="iso-8859-1"?>

  <configuration xmlns:xsi="http://www.w3.org/2001/XMLSchema-instance" xsi:noNamespaceSchemaLocation="http://sumo.sf.net/xsd/sumoConfigu  ration.xsd">

      <input>
          <net-file value="net.xml"/>
          <route-files value="output.trips0.xml,output.trips2.xml,output.trips1.xml"/>
      </input>

      <time>
          <begin value="0"/>
          <end value="1800"/>
          <step-length value="0.1"/>
      </time>

      <processing>
          <collision.action value="remove"/>
          <collision.stoptime value="1"/>
      </processing>

      <gui_only>
          <start value="true"/>
          <gui-settings-file value="freeway.gui.xml"/> 
      </gui_only>

  </configuration>

