<?xml version="1.0" encoding="UTF-8"?>

<!-- generated on 2022-12-20 19:26:56.058746 by randomTrips.py UNKNOWN
<configuration>
    <additional-files value="addition.xml"/>
    <end value="780"/>
    <fringe-factor value="1000.0"/>
    <lanes value="True"/>
    <max-distance value="500000.0"/>
    <min-distance value="1000.0"/>
    <net-file value="net.xml"/>
    <period value="0.6"/>
    <route-file value="output.trips2.xml"/>
    <seed value="30"/>
    <trip-attributes value="maxSpeed=&quot;23.33333&quot; departSpeed=&quot;max&quot; carFollowModel=&quot;EIDM&quot;"/>
    <prefix value="truck"/>
    <validate value="True"/>
    <vehicle-class value="truck"/>
</configuration>
-->

<!-- generated on 2022-12-20 19:26:56 by Eclipse SUMO duarouter Version 1.14.1
<configuration xmlns:xsi="http://www.w3.org/2001/XMLSchema-instance" xsi:noNamespaceSchemaLocation="http://sumo.dlr.de/xsd/duarouterConfiguration.xsd">

    <input>
        <net-file value="net.xml"/>
        <additional-files value="addition.xml"/>
        <route-files value="trips.trips.xml"/>
    </input>

    <output>
        <output-file value="trips.trips.xml.tmp"/>
        <alternatives-output value="NUL"/>
        <write-trips value="true"/>
    </output>

    <time>
        <begin value="0"/>
        <end value="780"/>
    </time>

    <report>
        <no-warnings value="true"/>
        <ignore-errors value="true"/>
        <no-step-log value="true"/>
    </report>

</configuration>
-->

<routes xmlns:xsi="http://www.w3.org/2001/XMLSchema-instance" xsi:noNamespaceSchemaLocation="http://sumo.dlr.de/xsd/routes_file.xsd">
    <vType id="truck_truck" maxSpeed="23.33" vClass="truck" carFollowModel="EIDM"/>
    <trip id="truck0" type="truck_truck" depart="0.00" departSpeed="max" from="-gneE2" to="123456270"/>
    <trip id="truck1" type="truck_truck" depart="0.60" departSpeed="max" from="-gneE2" to="27144795"/>
    <trip id="truck2" type="truck_truck" depart="1.20" departSpeed="max" from="-gneE2" to="123456270"/>
    <trip id="truck3" type="truck_truck" depart="1.80" departSpeed="max" from="-gneE2" to="27144795"/>
    <trip id="truck4" type="truck_truck" depart="2.40" departSpeed="max" from="998322964" to="123456270"/>
    <trip id="truck5" type="truck_truck" depart="3.00" departSpeed="max" from="-gneE2" to="123456270"/>
    <trip id="truck8" type="truck_truck" depart="4.80" departSpeed="max" from="998322964" to="27144795"/>
    <trip id="truck9" type="truck_truck" depart="5.40" departSpeed="max" from="-gneE2" to="123456270"/>
    <trip id="truck11" type="truck_truck" depart="6.60" departSpeed="max" from="13259901" to="27144795"/>
    <trip id="truck12" type="truck_truck" depart="7.20" departSpeed="max" from="13259901" to="27144795"/>
    <trip id="truck14" type="truck_truck" depart="8.40" departSpeed="max" from="-gneE2" to="123456270"/>
    <trip id="truck16" type="truck_truck" depart="9.60" departSpeed="max" from="998322964" to="123456270"/>
    <trip id="truck17" type="truck_truck" depart="10.20" departSpeed="max" from="-gneE2" to="123456270"/>
    <trip id="truck18" type="truck_truck" depart="10.80" departSpeed="max" from="-gneE2" to="27144795"/>
    <trip id="truck19" type="truck_truck" depart="11.40" departSpeed="max" from="-gneE2" to="27144795"/>
    <trip id="truck20" type="truck_truck" depart="12.00" departSpeed="max" from="-gneE2" to="123456270"/>
    <trip id="truck21" type="truck_truck" depart="12.60" departSpeed="max" from="-gneE2" to="27144795"/>
    <trip id="truck23" type="truck_truck" depart="13.80" departSpeed="max" from="998322964" to="123456270"/>
    <trip id="truck25" type="truck_truck" depart="15.00" departSpeed="max" from="998322964" to="123456270"/>
    <trip id="truck27" type="truck_truck" depart="16.20" departSpeed="max" from="-gneE2" to="123456270"/>
    <trip id="truck28" type="truck_truck" depart="16.80" departSpeed="max" from="13259901" to="27144795"/>
    <trip id="truck30" type="truck_truck" depart="18.00" departSpeed="max" from="-gneE2" to="123456270"/>
    <trip id="truck31" type="truck_truck" depart="18.60" departSpeed="max" from="-gneE2" to="123456270"/>
    <trip id="truck32" type="truck_truck" depart="19.20" departSpeed="max" from="-gneE2" to="123456270"/>
    <trip id="truck33" type="truck_truck" depart="19.80" departSpeed="max" from="13259901" to="27144795"/>
    <trip id="truck34" type="truck_truck" depart="20.40" departSpeed="max" from="-gneE2" to="123456270"/>
    <trip id="truck35" type="truck_truck" depart="21.00" departSpeed="max" from="13259901" to="123456270"/>
    <trip id="truck36" type="truck_truck" depart="21.60" departSpeed="max" from="998322964" to="27144795"/>
    <trip id="truck37" type="truck_truck" depart="22.20" departSpeed="max" from="13259901" to="123456270"/>
    <trip id="truck38" type="truck_truck" depart="22.80" departSpeed="max" from="-gneE2" to="27144795"/>
    <trip id="truck39" type="truck_truck" depart="23.40" departSpeed="max" from="998322964" to="123456270"/>
    <trip id="truck40" type="truck_truck" depart="24.00" departSpeed="max" from="-gneE2" to="27144795"/>
    <trip id="truck41" type="truck_truck" depart="24.60" departSpeed="max" from="-gneE2" to="123456270"/>
    <trip id="truck42" type="truck_truck" depart="25.20" departSpeed="max" from="-gneE2" to="123456270"/>
    <trip id="truck43" type="truck_truck" depart="25.80" departSpeed="max" from="-gneE2" to="123456270"/>
    <trip id="truck44" type="truck_truck" depart="26.40" departSpeed="max" from="998322964" to="27144795"/>
    <trip id="truck45" type="truck_truck" depart="27.00" departSpeed="max" from="-gneE2" to="123456270"/>
    <trip id="truck50" type="truck_truck" depart="30.00" departSpeed="max" from="-gneE2" to="123456270"/>
    <trip id="truck51" type="truck_truck" depart="30.60" departSpeed="max" from="-gneE2" to="123456270"/>
    <trip id="truck52" type="truck_truck" depart="31.20" departSpeed="max" from="-gneE2" to="123456270"/>
    <trip id="truck54" type="truck_truck" depart="32.40" departSpeed="max" from="-gneE2" to="27144795"/>
    <trip id="truck55" type="truck_truck" depart="33.00" departSpeed="max" from="13259901" to="27144795"/>
    <trip id="truck57" type="truck_truck" depart="34.20" departSpeed="max" from="-gneE2" to="123456270"/>
    <trip id="truck58" type="truck_truck" depart="34.80" departSpeed="max" from="-gneE2" to="123456270"/>
    <trip id="truck59" type="truck_truck" depart="35.40" departSpeed="max" from="-gneE2" to="27144795"/>
    <trip id="truck60" type="truck_truck" depart="36.00" departSpeed="max" from="13259901" to="123456270"/>
    <trip id="truck61" type="truck_truck" depart="36.60" departSpeed="max" from="-gneE2" to="123456270"/>
    <trip id="truck62" type="truck_truck" depart="37.20" departSpeed="max" from="-gneE2" to="123456270"/>
    <trip id="truck63" type="truck_truck" depart="37.80" departSpeed="max" from="13259901" to="123456270"/>
    <trip id="truck64" type="truck_truck" depart="38.40" departSpeed="max" from="-gneE2" to="123456270"/>
    <trip id="truck65" type="truck_truck" depart="39.00" departSpeed="max" from="-gneE2" to="123456270"/>
    <trip id="truck66" type="truck_truck" depart="39.60" departSpeed="max" from="13259901" to="123456270"/>
    <trip id="truck67" type="truck_truck" depart="40.20" departSpeed="max" from="13259901" to="27144795"/>
    <trip id="truck68" type="truck_truck" depart="40.80" departSpeed="max" from="13259901" to="123456270"/>
    <trip id="truck69" type="truck_truck" depart="41.40" departSpeed="max" from="-gneE2" to="27144795"/>
    <trip id="truck70" type="truck_truck" depart="42.00" departSpeed="max" from="-gneE2" to="123456270"/>
    <trip id="truck71" type="truck_truck" depart="42.60" departSpeed="max" from="13259901" to="27144082.0"/>
    <trip id="truck72" type="truck_truck" depart="43.20" departSpeed="max" from="-gneE2" to="123456270"/>
    <trip id="truck73" type="truck_truck" depart="43.80" departSpeed="max" from="13259901" to="123456270"/>
    <trip id="truck74" type="truck_truck" depart="44.40" departSpeed="max" from="13259901" to="123456270"/>
    <trip id="truck75" type="truck_truck" depart="45.00" departSpeed="max" from="-gneE2" to="123456270"/>
    <trip id="truck76" type="truck_truck" depart="45.60" departSpeed="max" from="-gneE2" to="27144795"/>
    <trip id="truck77" type="truck_truck" depart="46.20" departSpeed="max" from="-gneE2" to="123456270"/>
    <trip id="truck78" type="truck_truck" depart="46.80" departSpeed="max" from="13259901" to="123456270"/>
    <trip id="truck79" type="truck_truck" depart="47.40" departSpeed="max" from="-gneE2" to="123456270"/>
    <trip id="truck80" type="truck_truck" depart="48.00" departSpeed="max" from="13259901" to="123456270"/>
    <trip id="truck82" type="truck_truck" depart="49.20" departSpeed="max" from="-gneE2" to="123456270"/>
    <trip id="truck83" type="truck_truck" depart="49.80" departSpeed="max" from="998322964" to="123456270"/>
    <trip id="truck84" type="truck_truck" depart="50.40" departSpeed="max" from="998322964" to="123456270"/>
    <trip id="truck85" type="truck_truck" depart="51.00" departSpeed="max" from="-gneE2" to="123456270"/>
    <trip id="truck86" type="truck_truck" depart="51.60" departSpeed="max" from="13259901" to="123456270"/>
    <trip id="truck88" type="truck_truck" depart="52.80" departSpeed="max" from="-gneE2" to="123456270"/>
    <trip id="truck89" type="truck_truck" depart="53.40" departSpeed="max" from="998322964" to="123456270"/>
    <trip id="truck90" type="truck_truck" depart="54.00" departSpeed="max" from="-gneE2" to="123456270"/>
    <trip id="truck91" type="truck_truck" depart="54.60" departSpeed="max" from="13259901" to="123456270"/>
    <trip id="truck92" type="truck_truck" depart="55.20" departSpeed="max" from="13259901" to="123456270"/>
    <trip id="truck93" type="truck_truck" depart="55.80" departSpeed="max" from="-gneE2" to="27144795"/>
    <trip id="truck94" type="truck_truck" depart="56.40" departSpeed="max" from="-gneE2" to="123456270"/>
    <trip id="truck95" type="truck_truck" depart="57.00" departSpeed="max" from="13259901" to="123456270"/>
    <trip id="truck96" type="truck_truck" depart="57.60" departSpeed="max" from="-gneE2" to="123456270"/>
    <trip id="truck99" type="truck_truck" depart="59.40" departSpeed="max" from="13259901" to="27144795"/>
    <trip id="truck100" type="truck_truck" depart="60.00" departSpeed="max" from="-gneE2" to="27144795"/>
    <trip id="truck101" type="truck_truck" depart="60.60" departSpeed="max" from="-gneE2" to="123456270"/>
    <trip id="truck102" type="truck_truck" depart="61.20" departSpeed="max" from="-gneE2" to="123456270"/>
    <trip id="truck103" type="truck_truck" depart="61.80" departSpeed="max" from="-gneE2" to="27144795"/>
    <trip id="truck104" type="truck_truck" depart="62.40" departSpeed="max" from="-gneE2" to="123456270"/>
    <trip id="truck106" type="truck_truck" depart="63.60" departSpeed="max" from="998322964" to="123456270"/>
    <trip id="truck107" type="truck_truck" depart="64.20" departSpeed="max" from="13259901" to="27144795"/>
    <trip id="truck108" type="truck_truck" depart="64.80" departSpeed="max" from="-gneE2" to="123456270"/>
    <trip id="truck109" type="truck_truck" depart="65.40" departSpeed="max" from="-gneE2" to="123456270"/>
    <trip id="truck110" type="truck_truck" depart="66.00" departSpeed="max" from="-gneE2" to="123456270"/>
    <trip id="truck112" type="truck_truck" depart="67.20" departSpeed="max" from="998322964" to="123456270"/>
    <trip id="truck113" type="truck_truck" depart="67.80" departSpeed="max" from="-gneE2" to="123456270"/>
    <trip id="truck114" type="truck_truck" depart="68.40" departSpeed="max" from="-gneE2" to="27144795"/>
    <trip id="truck115" type="truck_truck" depart="69.00" departSpeed="max" from="-gneE2" to="123456270"/>
    <trip id="truck116" type="truck_truck" depart="69.60" departSpeed="max" from="998322964" to="27144795"/>
    <trip id="truck117" type="truck_truck" depart="70.20" departSpeed="max" from="13259901" to="27144795"/>
    <trip id="truck119" type="truck_truck" depart="71.40" departSpeed="max" from="13259901" to="123456270"/>
    <trip id="truck121" type="truck_truck" depart="72.60" departSpeed="max" from="-gneE2" to="123456270"/>
    <trip id="truck122" type="truck_truck" depart="73.20" departSpeed="max" from="13259901" to="123456270"/>
    <trip id="truck123" type="truck_truck" depart="73.80" departSpeed="max" from="-gneE2" to="123456270"/>
    <trip id="truck124" type="truck_truck" depart="74.40" departSpeed="max" from="-gneE2" to="123456270"/>
    <trip id="truck126" type="truck_truck" depart="75.60" departSpeed="max" from="-gneE2" to="54037578"/>
    <trip id="truck127" type="truck_truck" depart="76.20" departSpeed="max" from="-gneE2" to="27144795"/>
    <trip id="truck128" type="truck_truck" depart="76.80" departSpeed="max" from="998322964" to="123456270"/>
    <trip id="truck129" type="truck_truck" depart="77.40" departSpeed="max" from="998322964" to="27144795"/>
    <trip id="truck130" type="truck_truck" depart="78.00" departSpeed="max" from="13259901" to="123456270"/>
    <trip id="truck131" type="truck_truck" depart="78.60" departSpeed="max" from="13259901" to="123456270"/>
    <trip id="truck132" type="truck_truck" depart="79.20" departSpeed="max" from="-gneE2" to="27144795"/>
    <trip id="truck133" type="truck_truck" depart="79.80" departSpeed="max" from="998322964" to="123456270"/>
    <trip id="truck134" type="truck_truck" depart="80.40" departSpeed="max" from="13259901" to="123456270"/>
    <trip id="truck135" type="truck_truck" depart="81.00" departSpeed="max" from="-gneE2" to="123456270"/>
    <trip id="truck136" type="truck_truck" depart="81.60" departSpeed="max" from="-gneE2" to="123456270"/>
    <trip id="truck137" type="truck_truck" depart="82.20" departSpeed="max" from="-gneE2" to="123456270"/>
    <trip id="truck138" type="truck_truck" depart="82.80" departSpeed="max" from="13259901" to="123456270"/>
    <trip id="truck139" type="truck_truck" depart="83.40" departSpeed="max" from="-gneE2" to="27144795"/>
    <trip id="truck141" type="truck_truck" depart="84.60" departSpeed="max" from="13259901" to="123456270"/>
    <trip id="truck142" type="truck_truck" depart="85.20" departSpeed="max" from="13259901" to="123456270"/>
    <trip id="truck143" type="truck_truck" depart="85.80" departSpeed="max" from="13259901" to="123456270"/>
    <trip id="truck144" type="truck_truck" depart="86.40" departSpeed="max" from="-gneE2" to="123456270"/>
    <trip id="truck145" type="truck_truck" depart="87.00" departSpeed="max" from="-gneE2" to="123456270"/>
    <trip id="truck146" type="truck_truck" depart="87.60" departSpeed="max" from="-gneE2" to="123456270"/>
    <trip id="truck147" type="truck_truck" depart="88.20" departSpeed="max" from="998322964" to="123456270"/>
    <trip id="truck148" type="truck_truck" depart="88.80" departSpeed="max" from="-gneE2" to="123456270"/>
    <trip id="truck149" type="truck_truck" depart="89.40" departSpeed="max" from="-gneE2" to="123456270"/>
    <trip id="truck150" type="truck_truck" depart="90.00" departSpeed="max" from="-gneE2" to="123456270"/>
    <trip id="truck151" type="truck_truck" depart="90.60" departSpeed="max" from="-gneE2" to="123456270"/>
    <trip id="truck152" type="truck_truck" depart="91.20" departSpeed="max" from="-gneE2" to="123456270"/>
    <trip id="truck153" type="truck_truck" depart="91.80" departSpeed="max" from="-gneE2" to="123456270"/>
    <trip id="truck154" type="truck_truck" depart="92.40" departSpeed="max" from="-gneE2" to="123456270"/>
    <trip id="truck155" type="truck_truck" depart="93.00" departSpeed="max" from="-gneE2" to="27144795"/>
    <trip id="truck156" type="truck_truck" depart="93.60" departSpeed="max" from="-gneE2" to="123456270"/>
    <trip id="truck158" type="truck_truck" depart="94.80" departSpeed="max" from="998322964" to="123456270"/>
    <trip id="truck159" type="truck_truck" depart="95.40" departSpeed="max" from="998322964" to="27144795"/>
    <trip id="truck160" type="truck_truck" depart="96.00" departSpeed="max" from="998322964" to="27144795"/>
    <trip id="truck161" type="truck_truck" depart="96.60" departSpeed="max" from="-gneE2" to="123456270"/>
    <trip id="truck162" type="truck_truck" depart="97.20" departSpeed="max" from="13259901" to="27144795"/>
    <trip id="truck164" type="truck_truck" depart="98.40" departSpeed="max" from="-gneE2" to="123456270"/>
    <trip id="truck165" type="truck_truck" depart="99.00" departSpeed="max" from="13259901" to="123456270"/>
    <trip id="truck166" type="truck_truck" depart="99.60" departSpeed="max" from="-gneE2" to="123456270"/>
    <trip id="truck167" type="truck_truck" depart="100.20" departSpeed="max" from="13259901" to="123456270"/>
    <trip id="truck168" type="truck_truck" depart="100.80" departSpeed="max" from="13259901" to="123456270"/>
    <trip id="truck169" type="truck_truck" depart="101.40" departSpeed="max" from="-gneE2" to="123456270"/>
    <trip id="truck170" type="truck_truck" depart="102.00" departSpeed="max" from="-gneE2" to="27144795"/>
    <trip id="truck171" type="truck_truck" depart="102.60" departSpeed="max" from="998322964" to="123456270"/>
    <trip id="truck172" type="truck_truck" depart="103.20" departSpeed="max" from="998322964" to="123456270"/>
    <trip id="truck173" type="truck_truck" depart="103.80" departSpeed="max" from="-gneE2" to="123456270"/>
    <trip id="truck175" type="truck_truck" depart="105.00" departSpeed="max" from="-gneE2" to="123456270"/>
    <trip id="truck176" type="truck_truck" depart="105.60" departSpeed="max" from="-gneE2" to="123456270"/>
    <trip id="truck177" type="truck_truck" depart="106.20" departSpeed="max" from="-gneE2" to="123456270"/>
    <trip id="truck178" type="truck_truck" depart="106.80" departSpeed="max" from="-gneE2" to="27144795"/>
    <trip id="truck179" type="truck_truck" depart="107.40" departSpeed="max" from="-gneE2" to="123456270"/>
    <trip id="truck180" type="truck_truck" depart="108.00" departSpeed="max" from="-gneE2" to="123456270"/>
    <trip id="truck181" type="truck_truck" depart="108.60" departSpeed="max" from="-gneE2" to="123456270"/>
    <trip id="truck182" type="truck_truck" depart="109.20" departSpeed="max" from="-gneE2" to="27144795"/>
    <trip id="truck183" type="truck_truck" depart="109.80" departSpeed="max" from="13259901" to="123456270"/>
    <trip id="truck185" type="truck_truck" depart="111.00" departSpeed="max" from="13259901" to="123456270"/>
    <trip id="truck187" type="truck_truck" depart="112.20" departSpeed="max" from="13259901" to="123456270"/>
    <trip id="truck188" type="truck_truck" depart="112.80" departSpeed="max" from="998322964" to="27144795"/>
    <trip id="truck189" type="truck_truck" depart="113.40" departSpeed="max" from="-gneE2" to="123456270"/>
    <trip id="truck191" type="truck_truck" depart="114.60" departSpeed="max" from="998322964" to="27144795"/>
    <trip id="truck192" type="truck_truck" depart="115.20" departSpeed="max" from="-gneE2" to="123456270"/>
    <trip id="truck194" type="truck_truck" depart="116.40" departSpeed="max" from="998322964" to="123456270"/>
    <trip id="truck195" type="truck_truck" depart="117.00" departSpeed="max" from="-gneE2" to="123456270"/>
    <trip id="truck196" type="truck_truck" depart="117.60" departSpeed="max" from="-gneE2" to="123456270"/>
    <trip id="truck198" type="truck_truck" depart="118.80" departSpeed="max" from="13259901" to="123456270"/>
    <trip id="truck199" type="truck_truck" depart="119.40" departSpeed="max" from="998322964" to="123456270"/>
    <trip id="truck200" type="truck_truck" depart="120.00" departSpeed="max" from="998322964" to="123456270"/>
    <trip id="truck201" type="truck_truck" depart="120.60" departSpeed="max" from="-gneE2" to="123456270"/>
    <trip id="truck202" type="truck_truck" depart="121.20" departSpeed="max" from="-gneE2" to="27144795"/>
    <trip id="truck203" type="truck_truck" depart="121.80" departSpeed="max" from="998322964" to="27144795"/>
    <trip id="truck204" type="truck_truck" depart="122.40" departSpeed="max" from="-gneE2" to="123456270"/>
    <trip id="truck205" type="truck_truck" depart="123.00" departSpeed="max" from="998322964" to="27144795"/>
    <trip id="truck208" type="truck_truck" depart="124.80" departSpeed="max" from="13259901" to="123456270"/>
    <trip id="truck209" type="truck_truck" depart="125.40" departSpeed="max" from="13259901" to="27144795"/>
    <trip id="truck211" type="truck_truck" depart="126.60" departSpeed="max" from="-gneE2" to="123456270"/>
    <trip id="truck212" type="truck_truck" depart="127.20" departSpeed="max" from="13259901" to="27144795"/>
    <trip id="truck213" type="truck_truck" depart="127.80" departSpeed="max" from="998322964" to="123456270"/>
    <trip id="truck214" type="truck_truck" depart="128.40" departSpeed="max" from="998322964" to="27144795"/>
    <trip id="truck216" type="truck_truck" depart="129.60" departSpeed="max" from="13259901" to="123456270"/>
    <trip id="truck217" type="truck_truck" depart="130.20" departSpeed="max" from="13259901" to="123456270"/>
    <trip id="truck218" type="truck_truck" depart="130.80" departSpeed="max" from="-gneE2" to="123456270"/>
    <trip id="truck219" type="truck_truck" depart="131.40" departSpeed="max" from="-gneE2" to="27144795"/>
    <trip id="truck220" type="truck_truck" depart="132.00" departSpeed="max" from="-gneE2" to="123456270"/>
    <trip id="truck221" type="truck_truck" depart="132.60" departSpeed="max" from="13259901" to="123456270"/>
    <trip id="truck222" type="truck_truck" depart="133.20" departSpeed="max" from="998322964" to="27144795"/>
    <trip id="truck223" type="truck_truck" depart="133.80" departSpeed="max" from="998322964" to="123456270"/>
    <trip id="truck224" type="truck_truck" depart="134.40" departSpeed="max" from="-gneE2" to="123456270"/>
    <trip id="truck225" type="truck_truck" depart="135.00" departSpeed="max" from="-gneE2" to="27144795"/>
    <trip id="truck229" type="truck_truck" depart="137.40" departSpeed="max" from="998322964" to="123456270"/>
    <trip id="truck230" type="truck_truck" depart="138.00" departSpeed="max" from="13259901" to="27144795"/>
    <trip id="truck231" type="truck_truck" depart="138.60" departSpeed="max" from="998322964" to="27144795"/>
    <trip id="truck234" type="truck_truck" depart="140.40" departSpeed="max" from="-gneE2" to="123456265"/>
    <trip id="truck235" type="truck_truck" depart="141.00" departSpeed="max" from="-gneE2" to="27144795"/>
    <trip id="truck238" type="truck_truck" depart="142.80" departSpeed="max" from="13259901" to="123456270"/>
    <trip id="truck239" type="truck_truck" depart="143.40" departSpeed="max" from="13259901" to="27144795"/>
    <trip id="truck240" type="truck_truck" depart="144.00" departSpeed="max" from="-gneE2" to="123456270"/>
    <trip id="truck241" type="truck_truck" depart="144.60" departSpeed="max" from="998322964" to="123456270"/>
    <trip id="truck242" type="truck_truck" depart="145.20" departSpeed="max" from="-gneE2" to="123456270"/>
    <trip id="truck243" type="truck_truck" depart="145.80" departSpeed="max" from="-gneE2" to="123456270"/>
    <trip id="truck244" type="truck_truck" depart="146.40" departSpeed="max" from="-gneE2" to="27144795"/>
    <trip id="truck245" type="truck_truck" depart="147.00" departSpeed="max" from="-gneE2" to="123456270"/>
    <trip id="truck246" type="truck_truck" depart="147.60" departSpeed="max" from="-gneE2" to="123456270"/>
    <trip id="truck247" type="truck_truck" depart="148.20" departSpeed="max" from="-gneE2" to="123456270"/>
    <trip id="truck248" type="truck_truck" depart="148.80" departSpeed="max" from="-gneE2" to="123456270"/>
    <trip id="truck249" type="truck_truck" depart="149.40" departSpeed="max" from="998322964" to="27144795"/>
    <trip id="truck250" type="truck_truck" depart="150.00" departSpeed="max" from="998322964" to="123456270"/>
    <trip id="truck251" type="truck_truck" depart="150.60" departSpeed="max" from="13259901" to="123456270"/>
    <trip id="truck252" type="truck_truck" depart="151.20" departSpeed="max" from="13259901" to="123456270"/>
    <trip id="truck253" type="truck_truck" depart="151.80" departSpeed="max" from="-gneE2" to="123456270"/>
    <trip id="truck256" type="truck_truck" depart="153.60" departSpeed="max" from="-gneE2" to="27144795"/>
    <trip id="truck258" type="truck_truck" depart="154.80" departSpeed="max" from="-gneE2" to="27144795"/>
    <trip id="truck259" type="truck_truck" depart="155.40" departSpeed="max" from="-gneE2" to="123456270"/>
    <trip id="truck260" type="truck_truck" depart="156.00" departSpeed="max" from="998322964" to="27144795"/>
    <trip id="truck261" type="truck_truck" depart="156.60" departSpeed="max" from="13259901" to="123456270"/>
    <trip id="truck262" type="truck_truck" depart="157.20" departSpeed="max" from="-gneE2" to="27144795"/>
    <trip id="truck263" type="truck_truck" depart="157.80" departSpeed="max" from="998322964" to="123456270"/>
    <trip id="truck264" type="truck_truck" depart="158.40" departSpeed="max" from="-gneE2" to="123456270"/>
    <trip id="truck265" type="truck_truck" depart="159.00" departSpeed="max" from="-gneE2" to="123456270"/>
    <trip id="truck266" type="truck_truck" depart="159.60" departSpeed="max" from="-gneE2" to="123456270"/>
    <trip id="truck267" type="truck_truck" depart="160.20" departSpeed="max" from="-gneE2" to="27144795"/>
    <trip id="truck268" type="truck_truck" depart="160.80" departSpeed="max" from="998322964" to="123456270"/>
    <trip id="truck269" type="truck_truck" depart="161.40" departSpeed="max" from="13259901" to="123456270"/>
    <trip id="truck270" type="truck_truck" depart="162.00" departSpeed="max" from="998322964" to="27144795"/>
    <trip id="truck271" type="truck_truck" depart="162.60" departSpeed="max" from="-gneE2" to="123456270"/>
    <trip id="truck272" type="truck_truck" depart="163.20" departSpeed="max" from="-gneE2" to="27144795"/>
    <trip id="truck273" type="truck_truck" depart="163.80" departSpeed="max" from="-gneE2" to="27144795"/>
    <trip id="truck274" type="truck_truck" depart="164.40" departSpeed="max" from="13259901" to="123456270"/>
    <trip id="truck276" type="truck_truck" depart="165.60" departSpeed="max" from="-gneE2" to="27144795"/>
    <trip id="truck277" type="truck_truck" depart="166.20" departSpeed="max" from="-gneE2" to="27144795"/>
    <trip id="truck278" type="truck_truck" depart="166.80" departSpeed="max" from="998322964" to="123456270"/>
    <trip id="truck279" type="truck_truck" depart="167.40" departSpeed="max" from="998322964" to="27144795"/>
    <trip id="truck280" type="truck_truck" depart="168.00" departSpeed="max" from="-gneE2" to="123456270"/>
    <trip id="truck281" type="truck_truck" depart="168.60" departSpeed="max" from="998322964" to="123456270"/>
    <trip id="truck282" type="truck_truck" depart="169.20" departSpeed="max" from="998322964" to="27144795"/>
    <trip id="truck284" type="truck_truck" depart="170.40" departSpeed="max" from="13259901" to="27144795"/>
    <trip id="truck285" type="truck_truck" depart="171.00" departSpeed="max" from="-gneE2" to="123456270"/>
    <trip id="truck286" type="truck_truck" depart="171.60" departSpeed="max" from="13259901" to="27144795"/>
    <trip id="truck287" type="truck_truck" depart="172.20" departSpeed="max" from="998322964" to="123456270"/>
    <trip id="truck288" type="truck_truck" depart="172.80" departSpeed="max" from="-gneE2" to="123456270"/>
    <trip id="truck290" type="truck_truck" depart="174.00" departSpeed="max" from="13259901" to="123456270"/>
    <trip id="truck291" type="truck_truck" depart="174.60" departSpeed="max" from="13259901" to="123456270"/>
    <trip id="truck292" type="truck_truck" depart="175.20" departSpeed="max" from="998322964" to="123456270"/>
    <trip id="truck293" type="truck_truck" depart="175.80" departSpeed="max" from="998322964" to="27144795"/>
    <trip id="truck294" type="truck_truck" depart="176.40" departSpeed="max" from="13259901" to="123456270"/>
    <trip id="truck295" type="truck_truck" depart="177.00" departSpeed="max" from="-gneE2" to="123456270"/>
    <trip id="truck296" type="truck_truck" depart="177.60" departSpeed="max" from="-gneE2" to="123456270"/>
    <trip id="truck297" type="truck_truck" depart="178.20" departSpeed="max" from="-gneE2" to="123456270"/>
    <trip id="truck298" type="truck_truck" depart="178.80" departSpeed="max" from="-gneE2" to="27144795"/>
    <trip id="truck300" type="truck_truck" depart="180.00" departSpeed="max" from="13259901" to="123456270"/>
    <trip id="truck301" type="truck_truck" depart="180.60" departSpeed="max" from="-gneE2" to="123456270"/>
    <trip id="truck302" type="truck_truck" depart="181.20" departSpeed="max" from="13259901" to="27144795"/>
    <trip id="truck303" type="truck_truck" depart="181.80" departSpeed="max" from="998322964" to="123456270"/>
    <trip id="truck304" type="truck_truck" depart="182.40" departSpeed="max" from="-gneE2" to="123456270"/>
    <trip id="truck305" type="truck_truck" depart="183.00" departSpeed="max" from="13259901" to="123456270"/>
    <trip id="truck306" type="truck_truck" depart="183.60" departSpeed="max" from="-gneE2" to="27144795"/>
    <trip id="truck307" type="truck_truck" depart="184.20" departSpeed="max" from="-gneE2" to="123456270"/>
    <trip id="truck308" type="truck_truck" depart="184.80" departSpeed="max" from="-gneE2" to="123456270"/>
    <trip id="truck309" type="truck_truck" depart="185.40" departSpeed="max" from="-gneE2" to="123456270"/>
    <trip id="truck310" type="truck_truck" depart="186.00" departSpeed="max" from="998322964" to="123456270"/>
    <trip id="truck311" type="truck_truck" depart="186.60" departSpeed="max" from="-gneE2" to="123456270"/>
    <trip id="truck312" type="truck_truck" depart="187.20" departSpeed="max" from="13259901" to="123456270"/>