<?xml version="1.0" encoding="UTF-8"?>

<!-- generated on 2023-01-09 17:05:59.377433 by randomTrips.py UNKNOWN
<configuration>
    <end value="200"/>
    <fringe-factor value="1000.0"/>
    <lanes value="True"/>
    <max-distance value="500000.0"/>
    <min-distance value="1000.0"/>
    <net-file value="net.xml"/>
    <period value="0.3"/>
    <route-file value="output.trips2.xml"/>
    <seed value="30"/>
    <trip-attributes value=" departSpeed=&quot;20&quot; carFollowModel=&quot;Krauss&quot; lcKeepRight=&quot;0&quot;"/>
    <prefix value="truck"/>
    <validate value="True"/>
    <vehicle-class value="truck"/>
</configuration>
-->

<!-- generated on 2023-01-09 17:05:59 by Eclipse SUMO duarouter Version 1.14.1
<configuration xmlns:xsi="http://www.w3.org/2001/XMLSchema-instance" xsi:noNamespaceSchemaLocation="http://sumo.dlr.de/xsd/duarouterConfiguration.xsd">

    <input>
        <net-file value="net.xml"/>
        <route-files value="trips.trips.xml"/>
    </input>

    <output>
        <output-file value="trips.trips.xml.tmp"/>
        <alternatives-output value="NUL"/>
        <write-trips value="true"/>
    </output>

    <time>
        <begin value="0"/>
        <end value="200"/>
    </time>

    <report>
        <no-warnings value="true"/>
        <ignore-errors value="true"/>
        <no-step-log value="true"/>
    </report>

</configuration>
-->

<routes xmlns:xsi="http://www.w3.org/2001/XMLSchema-instance" xsi:noNamespaceSchemaLocation="http://sumo.dlr.de/xsd/routes_file.xsd">
    <vType id="truck_truck" vClass="truck" lcKeepRight="0" carFollowModel="Krauss"/>
    <trip id="truck0" type="truck_truck" depart="0.00" departSpeed="20.00" from="13259901" to="123456270"/>
    <trip id="truck1" type="truck_truck" depart="0.30" departSpeed="20.00" from="-gneE2" to="123456270"/>
    <trip id="truck3" type="truck_truck" depart="0.90" departSpeed="20.00" from="-gneE2" to="123456270"/>
    <trip id="truck4" type="truck_truck" depart="1.20" departSpeed="20.00" from="998322964" to="123456270"/>
    <trip id="truck6" type="truck_truck" depart="1.80" departSpeed="20.00" from="-gneE2" to="27144795"/>
    <trip id="truck7" type="truck_truck" depart="2.10" departSpeed="20.00" from="998322964" to="123456270"/>
    <trip id="truck9" type="truck_truck" depart="2.70" departSpeed="20.00" from="-gneE2" to="27144795"/>
    <trip id="truck10" type="truck_truck" depart="3.00" departSpeed="20.00" from="27643901.3" to="27144795"/>
    <trip id="truck11" type="truck_truck" depart="3.30" departSpeed="20.00" from="13259901" to="123456270"/>
    <trip id="truck12" type="truck_truck" depart="3.60" departSpeed="20.00" from="-gneE2" to="123456270"/>
    <trip id="truck13" type="truck_truck" depart="3.90" departSpeed="20.00" from="-gneE2" to="27144795"/>
    <trip id="truck15" type="truck_truck" depart="4.50" departSpeed="20.00" from="-gneE2" to="27144795"/>
    <trip id="truck16" type="truck_truck" depart="4.80" departSpeed="20.00" from="-gneE2" to="27144795"/>
    <trip id="truck17" type="truck_truck" depart="5.10" departSpeed="20.00" from="-gneE2" to="123456270"/>
    <trip id="truck18" type="truck_truck" depart="5.40" departSpeed="20.00" from="-gneE2" to="123456270"/>
    <trip id="truck19" type="truck_truck" depart="5.70" departSpeed="20.00" from="13259901" to="399659231"/>
    <trip id="truck20" type="truck_truck" depart="6.00" departSpeed="20.00" from="998322964" to="123456270"/>
    <trip id="truck21" type="truck_truck" depart="6.30" departSpeed="20.00" from="-gneE2" to="399659231"/>
    <trip id="truck22" type="truck_truck" depart="6.60" departSpeed="20.00" from="998322964" to="123456270"/>
    <trip id="truck23" type="truck_truck" depart="6.90" departSpeed="20.00" from="13259901" to="399659231"/>
    <trip id="truck25" type="truck_truck" depart="7.50" departSpeed="20.00" from="27643901.3" to="123456270"/>
    <trip id="truck26" type="truck_truck" depart="7.80" departSpeed="20.00" from="27643901.3" to="27144795"/>
    <trip id="truck27" type="truck_truck" depart="8.10" departSpeed="20.00" from="13259901" to="123456270"/>
    <trip id="truck29" type="truck_truck" depart="8.70" departSpeed="20.00" from="-gneE2" to="123456270"/>
    <trip id="truck30" type="truck_truck" depart="9.00" departSpeed="20.00" from="998322964" to="123456270"/>
    <trip id="truck31" type="truck_truck" depart="9.30" departSpeed="20.00" from="13259901" to="123456270"/>
    <trip id="truck32" type="truck_truck" depart="9.60" departSpeed="20.00" from="27643901.3" to="123456270"/>
    <trip id="truck33" type="truck_truck" depart="9.90" departSpeed="20.00" from="998322964" to="123456270"/>
    <trip id="truck34" type="truck_truck" depart="10.20" departSpeed="20.00" from="27643901.3" to="123456270"/>
    <trip id="truck35" type="truck_truck" depart="10.50" departSpeed="20.00" from="13259901" to="27144795"/>
    <trip id="truck36" type="truck_truck" depart="10.80" departSpeed="20.00" from="998322964" to="123456270"/>
    <trip id="truck37" type="truck_truck" depart="11.10" departSpeed="20.00" from="-gneE2" to="123456270"/>
    <trip id="truck38" type="truck_truck" depart="11.40" departSpeed="20.00" from="-gneE2" to="123456270"/>
    <trip id="truck39" type="truck_truck" depart="11.70" departSpeed="20.00" from="-gneE2" to="123456270"/>
    <trip id="truck40" type="truck_truck" depart="12.00" departSpeed="20.00" from="-gneE2" to="123456270"/>
    <trip id="truck41" type="truck_truck" depart="12.30" departSpeed="20.00" from="998322964" to="123456270"/>
    <trip id="truck42" type="truck_truck" depart="12.60" departSpeed="20.00" from="-gneE2" to="123456270"/>
    <trip id="truck43" type="truck_truck" depart="12.90" departSpeed="20.00" from="-gneE2" to="27144795"/>
    <trip id="truck44" type="truck_truck" depart="13.20" departSpeed="20.00" from="13259901" to="27144795"/>
    <trip id="truck45" type="truck_truck" depart="13.50" departSpeed="20.00" from="-gneE2" to="27144795"/>
    <trip id="truck46" type="truck_truck" depart="13.80" departSpeed="20.00" from="-gneE2" to="399659231"/>
    <trip id="truck48" type="truck_truck" depart="14.40" departSpeed="20.00" from="998322964" to="27144795"/>
    <trip id="truck49" type="truck_truck" depart="14.70" departSpeed="20.00" from="-gneE2" to="123456270"/>
    <trip id="truck51" type="truck_truck" depart="15.30" departSpeed="20.00" from="-gneE2" to="399659231"/>
    <trip id="truck52" type="truck_truck" depart="15.60" departSpeed="20.00" from="-gneE2" to="27144795"/>
    <trip id="truck53" type="truck_truck" depart="15.90" departSpeed="20.00" from="998322964" to="27144795"/>
    <trip id="truck54" type="truck_truck" depart="16.20" departSpeed="20.00" from="-gneE2" to="123456270"/>
    <trip id="truck56" type="truck_truck" depart="16.80" departSpeed="20.00" from="13259901" to="27144795"/>
    <trip id="truck57" type="truck_truck" depart="17.10" departSpeed="20.00" from="-gneE2" to="123456270"/>
    <trip id="truck61" type="truck_truck" depart="18.30" departSpeed="20.00" from="27643901.3" to="123456270"/>
    <trip id="truck62" type="truck_truck" depart="18.60" departSpeed="20.00" from="998322964" to="27144795"/>
    <trip id="truck63" type="truck_truck" depart="18.90" departSpeed="20.00" from="998322964" to="123456270"/>
    <trip id="truck64" type="truck_truck" depart="19.20" departSpeed="20.00" from="-gneE2" to="123456270"/>
    <trip id="truck66" type="truck_truck" depart="19.80" departSpeed="20.00" from="27643901.3" to="123456270"/>
    <trip id="truck67" type="truck_truck" depart="20.10" departSpeed="20.00" from="-gneE2" to="123456270"/>
    <trip id="truck68" type="truck_truck" depart="20.40" departSpeed="20.00" from="-gneE2" to="123456270"/>
    <trip id="truck69" type="truck_truck" depart="20.70" departSpeed="20.00" from="-gneE2" to="27144795"/>
    <trip id="truck70" type="truck_truck" depart="21.00" departSpeed="20.00" from="-gneE2" to="123456270"/>
    <trip id="truck71" type="truck_truck" depart="21.30" departSpeed="20.00" from="998322964" to="27144795"/>
    <trip id="truck73" type="truck_truck" depart="21.90" departSpeed="20.00" from="998322964" to="123456270"/>
    <trip id="truck74" type="truck_truck" depart="22.20" departSpeed="20.00" from="-gneE2" to="399659231"/>
    <trip id="truck76" type="truck_truck" depart="22.80" departSpeed="20.00" from="998322964" to="123456270"/>
    <trip id="truck77" type="truck_truck" depart="23.10" departSpeed="20.00" from="998322964" to="123456270"/>
    <trip id="truck78" type="truck_truck" depart="23.40" departSpeed="20.00" from="-gneE2" to="123456270"/>
    <trip id="truck79" type="truck_truck" depart="23.70" departSpeed="20.00" from="998322964" to="123456270"/>
    <trip id="truck80" type="truck_truck" depart="24.00" departSpeed="20.00" from="13259901" to="123456270"/>
    <trip id="truck81" type="truck_truck" depart="24.30" departSpeed="20.00" from="998322964" to="123456270"/>
    <trip id="truck83" type="truck_truck" depart="24.90" departSpeed="20.00" from="-gneE2" to="123456270"/>
    <trip id="truck84" type="truck_truck" depart="25.20" departSpeed="20.00" from="-gneE2" to="123456270"/>
    <trip id="truck85" type="truck_truck" depart="25.50" departSpeed="20.00" from="27643901.3" to="123456270"/>
    <trip id="truck86" type="truck_truck" depart="25.80" departSpeed="20.00" from="13259901" to="123456270"/>
    <trip id="truck87" type="truck_truck" depart="26.10" departSpeed="20.00" from="-gneE2" to="27144795"/>
    <trip id="truck88" type="truck_truck" depart="26.40" departSpeed="20.00" from="13259901" to="399659231"/>
    <trip id="truck89" type="truck_truck" depart="26.70" departSpeed="20.00" from="27643901.3" to="123456270"/>
    <trip id="truck90" type="truck_truck" depart="27.00" departSpeed="20.00" from="-gneE2" to="123456270"/>
    <trip id="truck93" type="truck_truck" depart="27.90" departSpeed="20.00" from="-gneE2" to="123456270"/>
    <trip id="truck95" type="truck_truck" depart="28.50" departSpeed="20.00" from="13259901" to="399659231"/>
    <trip id="truck96" type="truck_truck" depart="28.80" departSpeed="20.00" from="27643901.3" to="123456270"/>
    <trip id="truck97" type="truck_truck" depart="29.10" departSpeed="20.00" from="13259901" to="123456270"/>
    <trip id="truck98" type="truck_truck" depart="29.40" departSpeed="20.00" from="13259901" to="123456270"/>
    <trip id="truck100" type="truck_truck" depart="30.00" departSpeed="20.00" from="27643901.3" to="27144795"/>
    <trip id="truck101" type="truck_truck" depart="30.30" departSpeed="20.00" from="998322964" to="123456270"/>
    <trip id="truck103" type="truck_truck" depart="30.90" departSpeed="20.00" from="-gneE2" to="123456270"/>
    <trip id="truck104" type="truck_truck" depart="31.20" departSpeed="20.00" from="-gneE2" to="123456270"/>
    <trip id="truck105" type="truck_truck" depart="31.50" departSpeed="20.00" from="998322964" to="123456270"/>
    <trip id="truck106" type="truck_truck" depart="31.80" departSpeed="20.00" from="27643901.3" to="27144795"/>
    <trip id="truck107" type="truck_truck" depart="32.10" departSpeed="20.00" from="27643901.3" to="27144795"/>
    <trip id="truck108" type="truck_truck" depart="32.40" departSpeed="20.00" from="-gneE2" to="399659231"/>
    <trip id="truck109" type="truck_truck" depart="32.70" departSpeed="20.00" from="-gneE2" to="123456270"/>
    <trip id="truck110" type="truck_truck" depart="33.00" departSpeed="20.00" from="998322964" to="27144795"/>
    <trip id="truck111" type="truck_truck" depart="33.30" departSpeed="20.00" from="-gneE2" to="123456270"/>
    <trip id="truck113" type="truck_truck" depart="33.90" departSpeed="20.00" from="-gneE2" to="27144795"/>
    <trip id="truck114" type="truck_truck" depart="34.20" departSpeed="20.00" from="998322964" to="27144795"/>
    <trip id="truck115" type="truck_truck" depart="34.50" departSpeed="20.00" from="-gneE2" to="399659231"/>
    <trip id="truck116" type="truck_truck" depart="34.80" departSpeed="20.00" from="-gneE2" to="123456270"/>
    <trip id="truck117" type="truck_truck" depart="35.10" departSpeed="20.00" from="998322964" to="123456270"/>
    <trip id="truck118" type="truck_truck" depart="35.40" departSpeed="20.00" from="27643901.3" to="123456270"/>
    <trip id="truck119" type="truck_truck" depart="35.70" departSpeed="20.00" from="-gneE2" to="123456270"/>
    <trip id="truck120" type="truck_truck" depart="36.00" departSpeed="20.00" from="998322964" to="123456270"/>
    <trip id="truck122" type="truck_truck" depart="36.60" departSpeed="20.00" from="-gneE2" to="123456270"/>
    <trip id="truck123" type="truck_truck" depart="36.90" departSpeed="20.00" from="13259901" to="123456270"/>
    <trip id="truck124" type="truck_truck" depart="37.20" departSpeed="20.00" from="-gneE2" to="123456270"/>
    <trip id="truck125" type="truck_truck" depart="37.50" departSpeed="20.00" from="13259901" to="399659231"/>
    <trip id="truck126" type="truck_truck" depart="37.80" departSpeed="20.00" from="27643901.3" to="123456270"/>
    <trip id="truck127" type="truck_truck" depart="38.10" departSpeed="20.00" from="27643901.3" to="123456270"/>
    <trip id="truck129" type="truck_truck" depart="38.70" departSpeed="20.00" from="-gneE2" to="123456270"/>
    <trip id="truck130" type="truck_truck" depart="39.00" departSpeed="20.00" from="-gneE2" to="123456270"/>
    <trip id="truck132" type="truck_truck" depart="39.60" departSpeed="20.00" from="13259901" to="123456270"/>
    <trip id="truck133" type="truck_truck" depart="39.90" departSpeed="20.00" from="-gneE2" to="123456270"/>
    <trip id="truck137" type="truck_truck" depart="41.10" departSpeed="20.00" from="-gneE2" to="123456270"/>
    <trip id="truck138" type="truck_truck" depart="41.40" departSpeed="20.00" from="-gneE2" to="123456270"/>
    <trip id="truck139" type="truck_truck" depart="41.70" departSpeed="20.00" from="-gneE2" to="123456270"/>
    <trip id="truck140" type="truck_truck" depart="42.00" departSpeed="20.00" from="-gneE2" to="399659231"/>
    <trip id="truck141" type="truck_truck" depart="42.30" departSpeed="20.00" from="998322964" to="123456270"/>
    <trip id="truck142" type="truck_truck" depart="42.60" departSpeed="20.00" from="998322964" to="27144795"/>
    <trip id="truck143" type="truck_truck" depart="42.90" departSpeed="20.00" from="13259901" to="123456270"/>
    <trip id="truck144" type="truck_truck" depart="43.20" departSpeed="20.00" from="13259901" to="123456270"/>
    <trip id="truck145" type="truck_truck" depart="43.50" departSpeed="20.00" from="-gneE2" to="399659231"/>
    <trip id="truck146" type="truck_truck" depart="43.80" departSpeed="20.00" from="13259901" to="123456270"/>
    <trip id="truck147" type="truck_truck" depart="44.10" departSpeed="20.00" from="998322964" to="123456270"/>
    <trip id="truck148" type="truck_truck" depart="44.40" departSpeed="20.00" from="-gneE2" to="123456270"/>
    <trip id="truck149" type="truck_truck" depart="44.70" departSpeed="20.00" from="998322964" to="123456270"/>
    <trip id="truck151" type="truck_truck" depart="45.30" departSpeed="20.00" from="-gneE2" to="123456270"/>
    <trip id="truck152" type="truck_truck" depart="45.60" departSpeed="20.00" from="998322964" to="123456270"/>
    <trip id="truck153" type="truck_truck" depart="45.90" departSpeed="20.00" from="-gneE2" to="123456270"/>
    <trip id="truck154" type="truck_truck" depart="46.20" departSpeed="20.00" from="-gneE2" to="399659231"/>
    <trip id="truck156" type="truck_truck" depart="46.80" departSpeed="20.00" from="-gneE2" to="123456270"/>
    <trip id="truck157" type="truck_truck" depart="47.10" departSpeed="20.00" from="-gneE2" to="123456270"/>
    <trip id="truck158" type="truck_truck" depart="47.40" departSpeed="20.00" from="13259901" to="123456270"/>
    <trip id="truck159" type="truck_truck" depart="47.70" departSpeed="20.00" from="13259901" to="123456270"/>
    <trip id="truck160" type="truck_truck" depart="48.00" departSpeed="20.00" from="13259901" to="123456270"/>
    <trip id="truck162" type="truck_truck" depart="48.60" departSpeed="20.00" from="-gneE2" to="27144795"/>
    <trip id="truck163" type="truck_truck" depart="48.90" departSpeed="20.00" from="-gneE2" to="399659231"/>
    <trip id="truck164" type="truck_truck" depart="49.20" departSpeed="20.00" from="13259901" to="399659231"/>
    <trip id="truck165" type="truck_truck" depart="49.50" departSpeed="20.00" from="998322964" to="123456270"/>
    <trip id="truck166" type="truck_truck" depart="49.80" departSpeed="20.00" from="998322964" to="123456270"/>
    <trip id="truck167" type="truck_truck" depart="50.10" departSpeed="20.00" from="998322964" to="27144795"/>
    <trip id="truck168" type="truck_truck" depart="50.40" departSpeed="20.00" from="-gneE2" to="123456270"/>
    <trip id="truck169" type="truck_truck" depart="50.70" departSpeed="20.00" from="998322964" to="27144795"/>
    <trip id="truck170" type="truck_truck" depart="51.00" departSpeed="20.00" from="998322964" to="27144795"/>
    <trip id="truck171" type="truck_truck" depart="51.30" departSpeed="20.00" from="-gneE2" to="123456270"/>
    <trip id="truck172" type="truck_truck" depart="51.60" departSpeed="20.00" from="-gneE2" to="399659231"/>
    <trip id="truck173" type="truck_truck" depart="51.90" departSpeed="20.00" from="998322964" to="123456270"/>
    <trip id="truck176" type="truck_truck" depart="52.80" departSpeed="20.00" from="-gneE2" to="399659231"/>
    <trip id="truck178" type="truck_truck" depart="53.40" departSpeed="20.00" from="13259901" to="123456270"/>
    <trip id="truck179" type="truck_truck" depart="53.70" departSpeed="20.00" from="998322964" to="123456270"/>
    <trip id="truck180" type="truck_truck" depart="54.00" departSpeed="20.00" from="-gneE2" to="123456270"/>
    <trip id="truck181" type="truck_truck" depart="54.30" departSpeed="20.00" from="998322964" to="123456270"/>
    <trip id="truck182" type="truck_truck" depart="54.60" departSpeed="20.00" from="-gneE2" to="399659231"/>
    <trip id="truck183" type="truck_truck" depart="54.90" departSpeed="20.00" from="-gneE2" to="399659231"/>
    <trip id="truck184" type="truck_truck" depart="55.20" departSpeed="20.00" from="27643901.3" to="123456270"/>
    <trip id="truck185" type="truck_truck" depart="55.50" departSpeed="20.00" from="27643901.3" to="27144795"/>
    <trip id="truck187" type="truck_truck" depart="56.10" departSpeed="20.00" from="27643901.3" to="27144795"/>
    <trip id="truck188" type="truck_truck" depart="56.40" departSpeed="20.00" from="998322964" to="123456270"/>
    <trip id="truck189" type="truck_truck" depart="56.70" departSpeed="20.00" from="998322964" to="123456270"/>
    <trip id="truck190" type="truck_truck" depart="57.00" departSpeed="20.00" from="-gneE2" to="399659231"/>
    <trip id="truck191" type="truck_truck" depart="57.30" departSpeed="20.00" from="27643901.3" to="123456270"/>
    <trip id="truck192" type="truck_truck" depart="57.60" departSpeed="20.00" from="-gneE2" to="123456270"/>
    <trip id="truck193" type="truck_truck" depart="57.90" departSpeed="20.00" from="13259901" to="123456270"/>
    <trip id="truck194" type="truck_truck" depart="58.20" departSpeed="20.00" from="-gneE2" to="123456270"/>
    <trip id="truck195" type="truck_truck" depart="58.50" departSpeed="20.00" from="27643901.3" to="123456270"/>
    <trip id="truck196" type="truck_truck" depart="58.80" departSpeed="20.00" from="998322964" to="27144795"/>
    <trip id="truck197" type="truck_truck" depart="59.10" departSpeed="20.00" from="998322964" to="27144795"/>
    <trip id="truck198" type="truck_truck" depart="59.40" departSpeed="20.00" from="-gneE2" to="123456270"/>
    <trip id="truck199" type="truck_truck" depart="59.70" departSpeed="20.00" from="-gneE2" to="123456270"/>
    <trip id="truck200" type="truck_truck" depart="60.00" departSpeed="20.00" from="27643901.3" to="27144795"/>
    <trip id="truck201" type="truck_truck" depart="60.30" departSpeed="20.00" from="-gneE2" to="399659231"/>
    <trip id="truck202" type="truck_truck" depart="60.60" departSpeed="20.00" from="13259901" to="399659231"/>
    <trip id="truck203" type="truck_truck" depart="60.90" departSpeed="20.00" from="998322964" to="27144795"/>
    <trip id="truck204" type="truck_truck" depart="61.20" departSpeed="20.00" from="27643901.3" to="123456270"/>
    <trip id="truck205" type="truck_truck" depart="61.50" departSpeed="20.00" from="998322964" to="123456270"/>
    <trip id="truck206" type="truck_truck" depart="61.80" departSpeed="20.00" from="27643901.3" to="27144795"/>
    <trip id="truck207" type="truck_truck" depart="62.10" departSpeed="20.00" from="-gneE2" to="399659231"/>
    <trip id="truck209" type="truck_truck" depart="62.70" departSpeed="20.00" from="13259901" to="123456270"/>
    <trip id="truck210" type="truck_truck" depart="63.00" departSpeed="20.00" from="-gneE2" to="399659231"/>
    <trip id="truck211" type="truck_truck" depart="63.30" departSpeed="20.00" from="-gneE2" to="399659231"/>
    <trip id="truck212" type="truck_truck" depart="63.60" departSpeed="20.00" from="27643901.3" to="123456270"/>
    <trip id="truck213" type="truck_truck" depart="63.90" departSpeed="20.00" from="27643901.3" to="123456270"/>
    <trip id="truck214" type="truck_truck" depart="64.20" departSpeed="20.00" from="-gneE2" to="123456270"/>
    <trip id="truck215" type="truck_truck" depart="64.50" departSpeed="20.00" from="998322964" to="123456270"/>
    <trip id="truck217" type="truck_truck" depart="65.10" departSpeed="20.00" from="13259901" to="123456270"/>
    <trip id="truck218" type="truck_truck" depart="65.40" departSpeed="20.00" from="-gneE2" to="27144795"/>
    <trip id="truck220" type="truck_truck" depart="66.00" departSpeed="20.00" from="-gneE2" to="123456270"/>
    <trip id="truck223" type="truck_truck" depart="66.90" departSpeed="20.00" from="998322964" to="27144795"/>
    <trip id="truck224" type="truck_truck" depart="67.20" departSpeed="20.00" from="998322964" to="123456270"/>
    <trip id="truck227" type="truck_truck" depart="68.10" departSpeed="20.00" from="-gneE2" to="399659231"/>
    <trip id="truck228" type="truck_truck" depart="68.40" departSpeed="20.00" from="-gneE2" to="399659231"/>
    <trip id="truck229" type="truck_truck" depart="68.70" departSpeed="20.00" from="-gneE2" to="123456270"/>
    <trip id="truck230" type="truck_truck" depart="69.00" departSpeed="20.00" from="-gneE2" to="399659231"/>
    <trip id="truck231" type="truck_truck" depart="69.30" departSpeed="20.00" from="-gneE2" to="123456270"/>
    <trip id="truck232" type="truck_truck" depart="69.60" departSpeed="20.00" from="-gneE2" to="123456270"/>
    <trip id="truck233" type="truck_truck" depart="69.90" departSpeed="20.00" from="998322964" to="123456270"/>
    <trip id="truck234" type="truck_truck" depart="70.20" departSpeed="20.00" from="998322964" to="123456270"/>
    <trip id="truck235" type="truck_truck" depart="70.50" departSpeed="20.00" from="13259901" to="27144795"/>
    <trip id="truck236" type="truck_truck" depart="70.80" departSpeed="20.00" from="-gneE2" to="123456270"/>
    <trip id="truck239" type="truck_truck" depart="71.70" departSpeed="20.00" from="-gneE2" to="27144795"/>
    <trip id="truck240" type="truck_truck" depart="72.00" departSpeed="20.00" from="998322964" to="27144795"/>
    <trip id="truck242" type="truck_truck" depart="72.60" departSpeed="20.00" from="13259901" to="123456270"/>
    <trip id="truck243" type="truck_truck" depart="72.90" departSpeed="20.00" from="-gneE2" to="27144795"/>
    <trip id="truck244" type="truck_truck" depart="73.20" departSpeed="20.00" from="-gneE2" to="27144795"/>
    <trip id="truck245" type="truck_truck" depart="73.50" departSpeed="20.00" from="13259901" to="27144795"/>
    <trip id="truck246" type="truck_truck" depart="73.80" departSpeed="20.00" from="998322964" to="123456270"/>
    <trip id="truck247" type="truck_truck" depart="74.10" departSpeed="20.00" from="-gneE2" to="123456270"/>
    <trip id="truck248" type="truck_truck" depart="74.40" departSpeed="20.00" from="998322964" to="123456270"/>
    <trip id="truck249" type="truck_truck" depart="74.70" departSpeed="20.00" from="998322964" to="123456270"/>
    <trip id="truck250" type="truck_truck" depart="75.00" departSpeed="20.00" from="-gneE2" to="399659231"/>
    <trip id="truck251" type="truck_truck" depart="75.30" departSpeed="20.00" from="998322964" to="27144795"/>
    <trip id="truck252" type="truck_truck" depart="75.60" departSpeed="20.00" from="-gneE2" to="123456270"/>
    <trip id="truck253" type="truck_truck" depart="75.90" departSpeed="20.00" from="27643901.3" to="123456270"/>
    <trip id="truck254" type="truck_truck" depart="76.20" departSpeed="20.00" from="998322964" to="123456270"/>
    <trip id="truck255" type="truck_truck" depart="76.50" departSpeed="20.00" from="-gneE2" to="123456270"/>
    <trip id="truck256" type="truck_truck" depart="76.80" departSpeed="20.00" from="-gneE2" to="27144795"/>
    <trip id="truck257" type="truck_truck" depart="77.10" departSpeed="20.00" from="27643901.3" to="123456270"/>
    <trip id="truck258" type="truck_truck" depart="77.40" departSpeed="20.00" from="998322964" to="123456270"/>
    <trip id="truck259" type="truck_truck" depart="77.70" departSpeed="20.00" from="998322964" to="123456270"/>
    <trip id="truck261" type="truck_truck" depart="78.30" departSpeed="20.00" from="-gneE2" to="123456270"/>
    <trip id="truck263" type="truck_truck" depart="78.90" departSpeed="20.00" from="-gneE2" to="123456270"/>
    <trip id="truck264" type="truck_truck" depart="79.20" departSpeed="20.00" from="-gneE2" to="123456270"/>
    <trip id="truck265" type="truck_truck" depart="79.50" departSpeed="20.00" from="-gneE2" to="399659231"/>
    <trip id="truck266" type="truck_truck" depart="79.80" departSpeed="20.00" from="998322964" to="123456270"/>
    <trip id="truck267" type="truck_truck" depart="80.10" departSpeed="20.00" from="-gneE2" to="123456270"/>
    <trip id="truck268" type="truck_truck" depart="80.40" departSpeed="20.00" from="27643901.3" to="27144795"/>
    <trip id="truck269" type="truck_truck" depart="80.70" departSpeed="20.00" from="998322964" to="123456270"/>
    <trip id="truck270" type="truck_truck" depart="81.00" departSpeed="20.00" from="13259901" to="123456270"/>
    <trip id="truck271" type="truck_truck" depart="81.30" departSpeed="20.00" from="27643901.3" to="123456270"/>
    <trip id="truck272" type="truck_truck" depart="81.60" departSpeed="20.00" from="-gneE2" to="123456270"/>
    <trip id="truck274" type="truck_truck" depart="82.20" departSpeed="20.00" from="-gneE2" to="123456270"/>
    <trip id="truck275" type="truck_truck" depart="82.50" departSpeed="20.00" from="-gneE2" to="123456270"/>
    <trip id="truck277" type="truck_truck" depart="83.10" departSpeed="20.00" from="27643901.3" to="123456270"/>
    <trip id="truck278" type="truck_truck" depart="83.40" departSpeed="20.00" from="998322964" to="123456270"/>
    <trip id="truck280" type="truck_truck" depart="84.00" departSpeed="20.00" from="27643901.3" to="123456270"/>
    <trip id="truck281" type="truck_truck" depart="84.30" departSpeed="20.00" from="-gneE2" to="27144795"/>
    <trip id="truck282" type="truck_truck" depart="84.60" departSpeed="20.00" from="13259901" to="123456270"/>
    <trip id="truck283" type="truck_truck" depart="84.90" departSpeed="20.00" from="13259901" to="123456270"/>
    <trip id="truck286" type="truck_truck" depart="85.80" departSpeed="20.00" from="-gneE2" to="123456270"/>
    <trip id="truck287" type="truck_truck" depart="86.10" departSpeed="20.00" from="-gneE2" to="123456270"/>
    <trip id="truck288" type="truck_truck" depart="86.40" departSpeed="20.00" from="998322964" to="27144795"/>
    <trip id="truck289" type="truck_truck" depart="86.70" departSpeed="20.00" from="-gneE2" to="123456270"/>
    <trip id="truck290" type="truck_truck" depart="87.00" departSpeed="20.00" from="998322964" to="123456270"/>
    <trip id="truck291" type="truck_truck" depart="87.30" departSpeed="20.00" from="-gneE2" to="399659231"/>
    <trip id="truck293" type="truck_truck" depart="87.90" departSpeed="20.00" from="13259901" to="123456270"/>
    <trip id="truck294" type="truck_truck" depart="88.20" departSpeed="20.00" from="-gneE2" to="123456270"/>
    <trip id="truck297" type="truck_truck" depart="89.10" departSpeed="20.00" from="-gneE2" to="399659231"/>
    <trip id="truck298" type="truck_truck" depart="89.40" departSpeed="20.00" from="998322964" to="123456270"/>
    <trip id="truck299" type="truck_truck" depart="89.70" departSpeed="20.00" from="-gneE2" to="123456270"/>
    <trip id="truck300" type="truck_truck" depart="90.00" departSpeed="20.00" from="998322964" to="123456270"/>
    <trip id="truck302" type="truck_truck" depart="90.60" departSpeed="20.00" from="998322964" to="123456270"/>
    <trip id="truck303" type="truck_truck" depart="90.90" departSpeed="20.00" from="27643901.3" to="123456270"/>
    <trip id="truck305" type="truck_truck" depart="91.50" departSpeed="20.00" from="998322964" to="123456270"/>
    <trip id="truck308" type="truck_truck" depart="92.40" departSpeed="20.00" from="998322964" to="123456270"/>
    <trip id="truck311" type="truck_truck" depart="93.30" departSpeed="20.00" from="13259901" to="123456270"/>
    <trip id="truck312" type="truck_truck" depart="93.60" departSpeed="20.00" from="-gneE2" to="123456270"/>
    <trip id="truck313" type="truck_truck" depart="93.90" departSpeed="20.00" from="-gneE2" to="123456270"/>
    <trip id="truck314" type="truck_truck" depart="94.20" departSpeed="20.00" from="13259901" to="399659231"/>
    <trip id="truck315" type="truck_truck" depart="94.50" departSpeed="20.00" from="998322964" to="123456270"/>
    <trip id="truck316" type="truck_truck" depart="94.80" departSpeed="20.00" from="27643901.3" to="123456270"/>
    <trip id="truck317" type="truck_truck" depart="95.10" departSpeed="20.00" from="27643901.3" to="123456270"/>
    <trip id="truck319" type="truck_truck" depart="95.70" departSpeed="20.00" from="998322964" to="123456270"/>