<?xml version="1.0" encoding="UTF-8"?>

<!-- generated on 2023-01-07 10:12:56 by Eclipse SUMO netedit Version 1.14.1
-->

<routes xmlns:xsi="http://www.w3.org/2001/XMLSchema-instance" xsi:noNamespaceSchemaLocation="http://sumo.dlr.de/xsd/routes_file.xsd">
    <!-- Routes -->
    <route id="r_0" edges="E0 E1"/>
    <route id="r_1" edges="E2 E1"/>
    <!-- Vehicles, persons and containers (sorted by depart) -->
</routes>
