<?xml version="1.0" ?>
<additional xmlns:xsi="http://www.w3.org/2001/XMLSchema-instance" xsi:noNamespaceSchemaLocation="http://sumo.dlr.de/xsd/additional_file.xsd">
	<vTypeDistribution id="car">
		<vType id="car0" tau="0.825" sigma="0.401" length="5.151" accel="1.972" decel="3.805" emergencyDecel="9.113" maxSpeed="47.665" vClass="passenger" carFollowModel="IDM">
			<param key="myCustomParameter" value="8.476"/>
		</vType>
		<vType id="car1" tau="0.768" sigma="0.736" length="5.201" accel="2.390" decel="3.907" emergencyDecel="9.296" maxSpeed="52.936" vClass="passenger" carFollowModel="IDM">
			<param key="myCustomParameter" value="5.736"/>
		</vType>
		<vType id="car2" tau="0.734" sigma="0.312" length="4.710" accel="2.073" decel="3.944" emergencyDecel="9.130" maxSpeed="45.834" vClass="passenger" carFollowModel="IDM">
			<param key="myCustomParameter" value="3.139"/>
		</vType>
		<vType id="car3" tau="0.831" sigma="0.414" length="5.088" accel="2.088" decel="4.263" emergencyDecel="8.893" maxSpeed="50.286" vClass="passenger" carFollowModel="IDM">
			<param key="myCustomParameter" value="7.840"/>
		</vType>
		<vType id="car4" tau="0.778" sigma="0.141" length="5.073" accel="2.135" decel="3.777" emergencyDecel="8.764" maxSpeed="46.562" vClass="passenger" carFollowModel="IDM">
			<param key="myCustomParameter" value="6.751"/>
		</vType>
		<vType id="car5" tau="0.800" sigma="0.308" length="4.944" accel="2.196" decel="4.204" emergencyDecel="8.930" maxSpeed="47.234" vClass="passenger" carFollowModel="IDM">
			<param key="myCustomParameter" value="6.046"/>
		</vType>
		<vType id="car6" tau="0.791" sigma="0.467" length="4.950" accel="1.851" decel="3.956" emergencyDecel="8.832" maxSpeed="48.651" vClass="passenger" carFollowModel="IDM">
			<param key="myCustomParameter" value="3.813"/>
		</vType>
		<vType id="car7" tau="0.600" sigma="0.228" length="4.787" accel="2.348" decel="3.956" emergencyDecel="9.130" maxSpeed="47.569" vClass="passenger" carFollowModel="IDM">
			<param key="myCustomParameter" value="4.508"/>
		</vType>
		<vType id="car8" tau="0.920" sigma="0.449" length="5.065" accel="1.807" decel="3.963" emergencyDecel="8.859" maxSpeed="50.182" vClass="passenger" carFollowModel="IDM">
			<param key="myCustomParameter" value="6.435"/>
		</vType>
		<vType id="car9" tau="0.797" sigma="0.464" length="4.527" accel="1.973" decel="4.068" emergencyDecel="8.832" maxSpeed="50.574" vClass="passenger" carFollowModel="IDM">
			<param key="myCustomParameter" value="1.346"/>
		</vType>
		<vType id="car10" tau="0.803" sigma="0.323" length="5" accel="1.897" decel="4.178" emergencyDecel="9.085" maxSpeed="49.334" vClass="passenger" carFollowModel="IDM">
			<param key="myCustomParameter" value="6.197"/>
		</vType>
		<vType id="car11" tau="0.621" sigma="0.352" length="4.984" accel="1.814" decel="3.947" emergencyDecel="9.386" maxSpeed="51.553" vClass="passenger" carFollowModel="IDM">
			<param key="myCustomParameter" value="1.982"/>
		</vType>
		<vType id="car12" tau="0.701" sigma="0.594" length="4.963" accel="1.958" decel="3.964" emergencyDecel="9.064" maxSpeed="51.846" vClass="passenger" carFollowModel="IDM">
			<param key="myCustomParameter" value="4.749"/>
		</vType>
		<vType id="car13" tau="0.952" sigma="0.775" length="4.762" accel="2.173" decel="3.904" emergencyDecel="8.915" maxSpeed="51.454" vClass="passenger" carFollowModel="IDM">
			<param key="myCustomParameter" value="6.105"/>
		</vType>
		<vType id="car14" tau="0.540" sigma="0.480" length="5.031" accel="2.222" decel="4.081" emergencyDecel="9.216" maxSpeed="47.624" vClass="passenger" carFollowModel="IDM">
			<param key="myCustomParameter" value="6.143"/>
		</vType>
		<vType id="car15" tau="0.837" sigma="0.407" length="4.611" accel="2.047" decel="4.252" emergencyDecel="8.950" maxSpeed="50.841" vClass="passenger" carFollowModel="IDM">
			<param key="myCustomParameter" value="0.799"/>
		</vType>
		<vType id="car16" tau="0.854" sigma="0.389" length="4.852" accel="2.359" decel="3.849" emergencyDecel="8.943" maxSpeed="50.992" vClass="passenger" carFollowModel="IDM">
			<param key="myCustomParameter" value="4.748"/>
		</vType>
		<vType id="car17" tau="0.753" sigma="0.622" length="4.606" accel="2.069" decel="4.076" emergencyDecel="8.833" maxSpeed="49.207" vClass="passenger" carFollowModel="IDM">
			<param key="myCustomParameter" value="1.547"/>
		</vType>
		<vType id="car18" tau="0.799" sigma="0.874" length="4.665" accel="2.006" decel="3.925" emergencyDecel="9.656" maxSpeed="53.467" vClass="passenger" carFollowModel="IDM">
			<param key="myCustomParameter" value="6.519"/>
		</vType>
		<vType id="car19" tau="0.925" sigma="0.488" length="4.661" accel="2.191" decel="4.060" emergencyDecel="8.797" maxSpeed="48.849" vClass="passenger" carFollowModel="IDM">
			<param key="myCustomParameter" value="5.160"/>
		</vType>
		<vType id="car20" tau="0.649" sigma="0.576" length="4.831" accel="1.964" decel="3.712" emergencyDecel="9.095" maxSpeed="47.937" vClass="passenger" carFollowModel="IDM">
			<param key="myCustomParameter" value="3.900"/>
		</vType>
		<vType id="car21" tau="0.820" sigma="0.377" length="4.877" accel="1.825" decel="3.961" emergencyDecel="8.987" maxSpeed="50.431" vClass="passenger" carFollowModel="IDM">
			<param key="myCustomParameter" value="4.165"/>
		</vType>
		<vType id="car22" tau="0.684" sigma="0.251" length="4.753" accel="2.144" decel="3.907" emergencyDecel="9.235" maxSpeed="52.119" vClass="passenger" carFollowModel="IDM">
			<param key="myCustomParameter" value="1.120"/>
		</vType>
		<vType id="car23" tau="0.814" sigma="0.794" length="4.610" accel="2.096" decel="3.800" emergencyDecel="9.261" maxSpeed="50.798" vClass="passenger" carFollowModel="IDM">
			<param key="myCustomParameter" value="6.755"/>
		</vType>
		<vType id="car24" tau="0.950" sigma="0.649" length="4.861" accel="2.003" decel="4.272" emergencyDecel="9.126" maxSpeed="45.887" vClass="passenger" carFollowModel="IDM">
			<param key="myCustomParameter" value="5.254"/>
		</vType>
		<vType id="car25" tau="0.759" sigma="0.673" length="4.869" accel="1.957" decel="4.147" emergencyDecel="8.511" maxSpeed="45.423" vClass="passenger" carFollowModel="IDM">
			<param key="myCustomParameter" value="5.954"/>
		</vType>
		<vType id="car26" tau="0.792" sigma="0.685" length="4.885" accel="1.821" decel="4.095" emergencyDecel="9.053" maxSpeed="50.185" vClass="passenger" carFollowModel="IDM">
			<param key="myCustomParameter" value="6.261"/>
		</vType>
		<vType id="car27" tau="0.848" sigma="0.403" length="4.780" accel="2.052" decel="3.862" emergencyDecel="8.980" maxSpeed="53.440" vClass="passenger" carFollowModel="IDM">
			<param key="myCustomParameter" value="4.172"/>
		</vType>
		<vType id="car28" tau="0.732" sigma="0.516" length="4.978" accel="2.248" decel="4.300" emergencyDecel="8.981" maxSpeed="52.898" vClass="passenger" carFollowModel="IDM">
			<param key="myCustomParameter" value="6.844"/>
		</vType>
		<vType id="car29" tau="0.603" sigma="0.531" length="5.130" accel="2.129" decel="4.014" emergencyDecel="8.859" maxSpeed="51.064" vClass="passenger" carFollowModel="IDM">
			<param key="myCustomParameter" value="3.729"/>
		</vType>
		<vType id="car30" tau="0.833" sigma="0.545" length="4.586" accel="2.128" decel="4.263" emergencyDecel="8.944" maxSpeed="48.345" vClass="passenger" carFollowModel="IDM">
			<param key="myCustomParameter" value="6.983"/>
		</vType>
		<vType id="car31" tau="0.759" sigma="0.716" length="5.204" accel="1.998" decel="3.722" emergencyDecel="8.919" maxSpeed="52.713" vClass="passenger" carFollowModel="IDM">
			<param key="myCustomParameter" value="5.809"/>
		</vType>
		<vType id="car32" tau="0.785" sigma="0.674" length="4.980" accel="1.997" decel="3.922" emergencyDecel="9.410" maxSpeed="48.094" vClass="passenger" carFollowModel="IDM">
			<param key="myCustomParameter" value="7.391"/>
		</vType>
		<vType id="car33" tau="0.789" sigma="0.432" length="4.925" accel="1.832" decel="4.235" emergencyDecel="9.112" maxSpeed="52.335" vClass="passenger" carFollowModel="IDM">
			<param key="myCustomParameter" value="4.296"/>
		</vType>
		<vType id="car34" tau="0.825" sigma="0.239" length="4.920" accel="1.985" decel="4.227" emergencyDecel="9.151" maxSpeed="45.296" vClass="passenger" carFollowModel="IDM">
			<param key="myCustomParameter" value="5.285"/>
		</vType>
		<vType id="car35" tau="0.947" sigma="0.134" length="4.456" accel="2.015" decel="3.894" emergencyDecel="8.996" maxSpeed="50.202" vClass="passenger" carFollowModel="IDM">
			<param key="myCustomParameter" value="5.390"/>
		</vType>
		<vType id="car36" tau="0.789" sigma="0.147" length="4.932" accel="2.285" decel="4.174" emergencyDecel="9.313" maxSpeed="53.269" vClass="passenger" carFollowModel="IDM">
			<param key="myCustomParameter" value="1.808"/>
		</vType>
		<vType id="car37" tau="0.919" sigma="0.729" length="4.916" accel="2.129" decel="4.063" emergencyDecel="8.660" maxSpeed="48.197" vClass="passenger" carFollowModel="IDM">
			<param key="myCustomParameter" value="8.468"/>
		</vType>
		<vType id="car38" tau="0.770" sigma="0.812" length="5.050" accel="2.230" decel="3.887" emergencyDecel="8.741" maxSpeed="51.090" vClass="passenger" carFollowModel="IDM">
			<param key="myCustomParameter" value="8.346"/>
		</vType>
		<vType id="car39" tau="0.686" sigma="0.387" length="4.690" accel="1.872" decel="4.083" emergencyDecel="8.832" maxSpeed="49.924" vClass="passenger" carFollowModel="IDM">
			<param key="myCustomParameter" value="5.580"/>
		</vType>
		<vType id="car40" tau="0.711" sigma="0.750" length="4.888" accel="2.057" decel="4.124" emergencyDecel="9.219" maxSpeed="53.378" vClass="passenger" carFollowModel="IDM">
			<param key="myCustomParameter" value="9.555"/>
		</vType>
		<vType id="car41" tau="0.836" sigma="0.452" length="4.988" accel="1.872" decel="4.122" emergencyDecel="9.153" maxSpeed="52.150" vClass="passenger" carFollowModel="IDM">
			<param key="myCustomParameter" value="9.149"/>
		</vType>
		<vType id="car42" tau="0.769" sigma="0.280" length="4.853" accel="2.142" decel="3.825" emergencyDecel="9.249" maxSpeed="48.979" vClass="passenger" carFollowModel="IDM">
			<param key="myCustomParameter" value="3.853"/>
		</vType>
		<vType id="car43" tau="0.734" sigma="0.271" length="5.128" accel="2.263" decel="4.098" emergencyDecel="8.968" maxSpeed="49.938" vClass="passenger" carFollowModel="IDM">
			<param key="myCustomParameter" value="4.202"/>
		</vType>
		<vType id="car44" tau="1.144" sigma="0.419" length="4.779" accel="2.219" decel="4.156" emergencyDecel="9.034" maxSpeed="51.301" vClass="passenger" carFollowModel="IDM">
			<param key="myCustomParameter" value="2.052"/>
		</vType>
		<vType id="car45" tau="0.736" sigma="0.689" length="4.760" accel="1.896" decel="4.057" emergencyDecel="8.867" maxSpeed="51.750" vClass="passenger" carFollowModel="IDM">
			<param key="myCustomParameter" value="6.609"/>
		</vType>
		<vType id="car46" tau="0.898" sigma="0.230" length="4.914" accel="1.988" decel="4.125" emergencyDecel="8.633" maxSpeed="47.945" vClass="passenger" carFollowModel="IDM">
			<param key="myCustomParameter" value="6.011"/>
		</vType>
		<vType id="car47" tau="0.810" sigma="0.540" length="5.370" accel="2.224" decel="4.097" emergencyDecel="8.978" maxSpeed="48.989" vClass="passenger" carFollowModel="IDM">
			<param key="myCustomParameter" value="4.681"/>
		</vType>
		<vType id="car48" tau="0.762" sigma="0.449" length="5.141" accel="2.068" decel="3.933" emergencyDecel="8.850" maxSpeed="50.531" vClass="passenger" carFollowModel="IDM">
			<param key="myCustomParameter" value="5.340"/>
		</vType>
		<vType id="car49" tau="0.835" sigma="0.309" length="5.032" accel="2.283" decel="4.050" emergencyDecel="8.903" maxSpeed="51.006" vClass="passenger" carFollowModel="IDM">
			<param key="myCustomParameter" value="7.926"/>
		</vType>
		<vType id="car50" tau="0.780" sigma="0.547" length="5.008" accel="1.958" decel="3.840" emergencyDecel="9.220" maxSpeed="46.924" vClass="passenger" carFollowModel="IDM">
			<param key="myCustomParameter" value="5.820"/>
		</vType>
		<vType id="car51" tau="0.854" sigma="0.473" length="4.999" accel="1.966" decel="4.119" emergencyDecel="9.060" maxSpeed="49.103" vClass="passenger" carFollowModel="IDM">
			<param key="myCustomParameter" value="3.852"/>
		</vType>
		<vType id="car52" tau="0.738" sigma="0.320" length="5.040" accel="2.061" decel="4.123" emergencyDecel="8.697" maxSpeed="52.413" vClass="passenger" carFollowModel="IDM">
			<param key="myCustomParameter" value="6.562"/>
		</vType>
		<vType id="car53" tau="0.832" sigma="0.448" length="4.817" accel="2.214" decel="4.142" emergencyDecel="8.849" maxSpeed="51.465" vClass="passenger" carFollowModel="IDM">
			<param key="myCustomParameter" value="5.648"/>
		</vType>
		<vType id="car54" tau="0.893" sigma="0.864" length="4.669" accel="2.061" decel="4.315" emergencyDecel="9.051" maxSpeed="47.344" vClass="passenger" carFollowModel="IDM">
			<param key="myCustomParameter" value="4.067"/>
		</vType>
		<vType id="car55" tau="0.645" sigma="0.381" length="5.217" accel="2.005" decel="4.090" emergencyDecel="9.247" maxSpeed="53.053" vClass="passenger" carFollowModel="IDM">
			<param key="myCustomParameter" value="3.832"/>
		</vType>
		<vType id="car56" tau="0.706" sigma="0.502" length="4.746" accel="1.956" decel="3.813" emergencyDecel="8.874" maxSpeed="48.621" vClass="passenger" carFollowModel="IDM">
			<param key="myCustomParameter" value="7.814"/>
		</vType>
		<vType id="car57" tau="0.843" sigma="0.724" length="4.763" accel="1.811" decel="3.908" emergencyDecel="9.218" maxSpeed="47.969" vClass="passenger" carFollowModel="IDM">
			<param key="myCustomParameter" value="8.257"/>
		</vType>
		<vType id="car58" tau="1.016" sigma="0.634" length="4.987" accel="1.926" decel="3.860" emergencyDecel="9.299" maxSpeed="48.912" vClass="passenger" carFollowModel="IDM">
			<param key="myCustomParameter" value="2.609"/>
		</vType>
		<vType id="car59" tau="0.853" sigma="0.450" length="5.027" accel="1.964" decel="4.079" emergencyDecel="8.973" maxSpeed="51.547" vClass="passenger" carFollowModel="IDM">
			<param key="myCustomParameter" value="5.169"/>
		</vType>
		<vType id="car60" tau="0.900" sigma="0.682" length="4.882" accel="1.914" decel="4.120" emergencyDecel="8.761" maxSpeed="52.882" vClass="passenger" carFollowModel="IDM">
			<param key="myCustomParameter" value="6.685"/>
		</vType>
		<vType id="car61" tau="0.862" sigma="0.100" length="4.726" accel="1.947" decel="3.692" emergencyDecel="8.956" maxSpeed="52.466" vClass="passenger" carFollowModel="IDM">
			<param key="myCustomParameter" value="3.256"/>
		</vType>
		<vType id="car62" tau="0.986" sigma="0.079" length="4.882" accel="1.806" decel="4.255" emergencyDecel="9.165" maxSpeed="48.126" vClass="passenger" carFollowModel="IDM">
			<param key="myCustomParameter" value="4.284"/>
		</vType>
		<vType id="car63" tau="0.733" sigma="0.483" length="5.245" accel="1.897" decel="3.937" emergencyDecel="8.847" maxSpeed="50.617" vClass="passenger" carFollowModel="IDM">
			<param key="myCustomParameter" value="5.181"/>
		</vType>
		<vType id="car64" tau="0.765" sigma="0.651" length="5.115" accel="2.352" decel="3.940" emergencyDecel="9.085" maxSpeed="49.602" vClass="passenger" carFollowModel="IDM">
			<param key="myCustomParameter" value="7.398"/>
		</vType>
		<vType id="car65" tau="0.790" sigma="0.985" length="4.920" accel="2.107" decel="3.776" emergencyDecel="9.188" maxSpeed="47.961" vClass="passenger" carFollowModel="IDM">
			<param key="myCustomParameter" value="7.208"/>
		</vType>
		<vType id="car66" tau="0.961" sigma="0.489" length="4.933" accel="2.085" decel="4.198" emergencyDecel="9.023" maxSpeed="48.329" vClass="passenger" carFollowModel="IDM">
			<param key="myCustomParameter" value="4.183"/>
		</vType>
		<vType id="car67" tau="0.773" sigma="0.696" length="4.498" accel="1.926" decel="4.058" emergencyDecel="8.815" maxSpeed="50.539" vClass="passenger" carFollowModel="IDM">
			<param key="myCustomParameter" value="4.002"/>
		</vType>
		<vType id="car68" tau="0.752" sigma="0.661" length="4.812" accel="1.890" decel="3.997" emergencyDecel="9.221" maxSpeed="52.465" vClass="passenger" carFollowModel="IDM">
			<param key="myCustomParameter" value="6.742"/>
		</vType>
		<vType id="car69" tau="0.772" sigma="0.633" length="5.318" accel="2.205" decel="3.837" emergencyDecel="8.771" maxSpeed="50.457" vClass="passenger" carFollowModel="IDM">
			<param key="myCustomParameter" value="2.945"/>
		</vType>
		<vType id="car70" tau="0.819" sigma="0.446" length="4.463" accel="2.267" decel="3.741" emergencyDecel="8.857" maxSpeed="47.907" vClass="passenger" carFollowModel="IDM">
			<param key="myCustomParameter" value="2.655"/>
		</vType>
		<vType id="car71" tau="0.810" sigma="0.355" length="4.901" accel="2.195" decel="4.229" emergencyDecel="9.125" maxSpeed="51.147" vClass="passenger" carFollowModel="IDM">
			<param key="myCustomParameter" value="7.225"/>
		</vType>
		<vType id="car72" tau="0.760" sigma="0.498" length="4.870" accel="2.090" decel="3.960" emergencyDecel="8.742" maxSpeed="47.717" vClass="passenger" carFollowModel="IDM">
			<param key="myCustomParameter" value="3.987"/>
		</vType>
		<vType id="car73" tau="0.742" sigma="0.394" length="4.705" accel="1.897" decel="3.826" emergencyDecel="9.039" maxSpeed="51.799" vClass="passenger" carFollowModel="IDM">
			<param key="myCustomParameter" value="5.101"/>
		</vType>
		<vType id="car74" tau="0.954" sigma="0.447" length="4.885" accel="2.100" decel="4.082" emergencyDecel="8.798" maxSpeed="53.306" vClass="passenger" carFollowModel="IDM">
			<param key="myCustomParameter" value="4.233"/>
		</vType>
		<vType id="car75" tau="0.815" sigma="0.520" length="4.906" accel="2.070" decel="4.269" emergencyDecel="9.153" maxSpeed="47.897" vClass="passenger" carFollowModel="IDM">
			<param key="myCustomParameter" value="5"/>
		</vType>
		<vType id="car76" tau="0.707" sigma="0.483" length="4.975" accel="1.847" decel="4.117" emergencyDecel="8.673" maxSpeed="50.381" vClass="passenger" carFollowModel="IDM">
			<param key="myCustomParameter" value="1.272"/>
		</vType>
		<vType id="car77" tau="0.731" sigma="0.871" length="4.635" accel="2.434" decel="4.096" emergencyDecel="9.035" maxSpeed="51.164" vClass="passenger" carFollowModel="IDM">
			<param key="myCustomParameter" value="6.374"/>
		</vType>
		<vType id="car78" tau="0.832" sigma="0.260" length="4.514" accel="1.863" decel="4.086" emergencyDecel="8.843" maxSpeed="48.223" vClass="passenger" carFollowModel="IDM">
			<param key="myCustomParameter" value="5.127"/>
		</vType>
		<vType id="car79" tau="0.758" sigma="0.834" length="5.060" accel="2.047" decel="3.803" emergencyDecel="8.902" maxSpeed="46.596" vClass="passenger" carFollowModel="IDM">
			<param key="myCustomParameter" value="4.036"/>
		</vType>
		<vType id="car80" tau="0.756" sigma="0.598" length="4.799" accel="2.112" decel="3.973" emergencyDecel="8.991" maxSpeed="51.976" vClass="passenger" carFollowModel="IDM">
			<param key="myCustomParameter" value="5.780"/>
		</vType>
		<vType id="car81" tau="0.848" sigma="0.232" length="4.929" accel="2.083" decel="4.244" emergencyDecel="8.508" maxSpeed="52.485" vClass="passenger" carFollowModel="IDM">
			<param key="myCustomParameter" value="3.267"/>
		</vType>
		<vType id="car82" tau="0.827" sigma="0.672" length="5.059" accel="1.930" decel="4.029" emergencyDecel="8.986" maxSpeed="48.413" vClass="passenger" carFollowModel="IDM">
			<param key="myCustomParameter" value="4.810"/>
		</vType>
		<vType id="car83" tau="0.596" sigma="0.731" length="5.007" accel="2.231" decel="3.874" emergencyDecel="8.920" maxSpeed="48.926" vClass="passenger" carFollowModel="IDM">
			<param key="myCustomParameter" value="2.548"/>
		</vType>
		<vType id="car84" tau="0.835" sigma="0.311" length="4.835" accel="1.927" decel="4.203" emergencyDecel="9.050" maxSpeed="48.515" vClass="passenger" carFollowModel="IDM">
			<param key="myCustomParameter" value="7.156"/>
		</vType>
		<vType id="car85" tau="0.768" sigma="0.478" length="4.972" accel="1.938" decel="3.668" emergencyDecel="8.668" maxSpeed="50.044" vClass="passenger" carFollowModel="IDM">
			<param key="myCustomParameter" value="3.212"/>
		</vType>
		<vType id="car86" tau="0.804" sigma="0.258" length="4.613" accel="2.194" decel="4.008" emergencyDecel="8.718" maxSpeed="53.805" vClass="passenger" carFollowModel="IDM">
			<param key="myCustomParameter" value="3.055"/>
		</vType>
		<vType id="car87" tau="0.900" sigma="0.262" length="4.765" accel="2.086" decel="4.274" emergencyDecel="8.866" maxSpeed="51.205" vClass="passenger" carFollowModel="IDM">
			<param key="myCustomParameter" value="5.808"/>
		</vType>
		<vType id="car88" tau="0.681" sigma="0.536" length="4.667" accel="2.131" decel="4.062" emergencyDecel="8.868" maxSpeed="50.870" vClass="passenger" carFollowModel="IDM">
			<param key="myCustomParameter" value="6.828"/>
		</vType>
		<vType id="car89" tau="0.857" sigma="0.456" length="4.593" accel="2.117" decel="4.103" emergencyDecel="8.912" maxSpeed="46.398" vClass="passenger" carFollowModel="IDM">
			<param key="myCustomParameter" value="3.632"/>
		</vType>
		<vType id="car90" tau="0.838" sigma="0.446" length="5.044" accel="1.966" decel="3.827" emergencyDecel="8.940" maxSpeed="47.662" vClass="passenger" carFollowModel="IDM">
			<param key="myCustomParameter" value="11.645"/>
		</vType>
		<vType id="car91" tau="0.811" sigma="0.389" length="4.995" accel="2.279" decel="4.174" emergencyDecel="8.946" maxSpeed="47.767" vClass="passenger" carFollowModel="IDM">
			<param key="myCustomParameter" value="5.796"/>
		</vType>
		<vType id="car92" tau="0.756" sigma="0.435" length="4.909" accel="1.935" decel="4.226" emergencyDecel="8.932" maxSpeed="48.880" vClass="passenger" carFollowModel="IDM">
			<param key="myCustomParameter" value="5.466"/>
		</vType>
		<vType id="car93" tau="0.711" sigma="0.253" length="4.899" accel="2.085" decel="4.095" emergencyDecel="8.594" maxSpeed="49.518" vClass="passenger" carFollowModel="IDM">
			<param key="myCustomParameter" value="5.404"/>
		</vType>
		<vType id="car94" tau="0.922" sigma="0.309" length="4.585" accel="1.886" decel="4.149" emergencyDecel="8.989" maxSpeed="53.081" vClass="passenger" carFollowModel="IDM">
			<param key="myCustomParameter" value="2.768"/>
		</vType>
		<vType id="car95" tau="0.874" sigma="0.444" length="4.826" accel="2.415" decel="4.372" emergencyDecel="9.098" maxSpeed="49.074" vClass="passenger" carFollowModel="IDM">
			<param key="myCustomParameter" value="2.746"/>
		</vType>
		<vType id="car96" tau="0.747" sigma="0.659" length="4.606" accel="1.991" decel="4.314" emergencyDecel="9.121" maxSpeed="51.213" vClass="passenger" carFollowModel="IDM">
			<param key="myCustomParameter" value="1.325"/>
		</vType>
		<vType id="car97" tau="0.682" sigma="0.654" length="4.766" accel="2.259" decel="3.995" emergencyDecel="9.266" maxSpeed="51.817" vClass="passenger" carFollowModel="IDM">
			<param key="myCustomParameter" value="1.273"/>
		</vType>
		<vType id="car98" tau="0.978" sigma="0.698" length="5.020" accel="1.897" decel="3.909" emergencyDecel="8.805" maxSpeed="50.317" vClass="passenger" carFollowModel="IDM">
			<param key="myCustomParameter" value="2.484"/>
		</vType>
		<vType id="car99" tau="0.626" sigma="0.402" length="4.783" accel="2.030" decel="3.952" emergencyDecel="8.865" maxSpeed="47.349" vClass="passenger" carFollowModel="IDM">
			<param key="myCustomParameter" value="4.475"/>
		</vType>
		<vType id="car100" tau="0.703" sigma="0.268" length="4.940" accel="1.806" decel="4.231" emergencyDecel="9.210" maxSpeed="49.121" vClass="passenger" carFollowModel="IDM">
			<param key="myCustomParameter" value="3.503"/>
		</vType>
		<vType id="car101" tau="0.683" sigma="0.493" length="4.758" accel="2.179" decel="3.696" emergencyDecel="9.070" maxSpeed="51.386" vClass="passenger" carFollowModel="IDM">
			<param key="myCustomParameter" value="7.887"/>
		</vType>
		<vType id="car102" tau="0.864" sigma="0.267" length="4.838" accel="2.060" decel="4.191" emergencyDecel="9.107" maxSpeed="49.310" vClass="passenger" carFollowModel="IDM">
			<param key="myCustomParameter" value="5.716"/>
		</vType>
		<vType id="car103" tau="0.569" sigma="0.535" length="4.984" accel="2.053" decel="3.861" emergencyDecel="9.281" maxSpeed="50.076" vClass="passenger" carFollowModel="IDM">
			<param key="myCustomParameter" value="5.650"/>
		</vType>
		<vType id="car104" tau="0.785" sigma="0.727" length="4.900" accel="1.821" decel="3.981" emergencyDecel="8.989" maxSpeed="49.300" vClass="passenger" carFollowModel="IDM">
			<param key="myCustomParameter" value="4.112"/>
		</vType>
		<vType id="car105" tau="0.860" sigma="0.840" length="4.973" accel="1.867" decel="3.845" emergencyDecel="8.699" maxSpeed="49.760" vClass="passenger" carFollowModel="IDM">
			<param key="myCustomParameter" value="5.488"/>
		</vType>
		<vType id="car106" tau="0.826" sigma="0.588" length="5.353" accel="2.157" decel="3.890" emergencyDecel="9.026" maxSpeed="50.856" vClass="passenger" carFollowModel="IDM">
			<param key="myCustomParameter" value="5.458"/>
		</vType>
		<vType id="car107" tau="0.955" sigma="0.866" length="4.720" accel="1.811" decel="3.645" emergencyDecel="9.006" maxSpeed="47.984" vClass="passenger" carFollowModel="IDM">
			<param key="myCustomParameter" value="2.042"/>
		</vType>
		<vType id="car108" tau="0.894" sigma="0.496" length="4.784" accel="2.004" decel="4.108" emergencyDecel="9.228" maxSpeed="51.265" vClass="passenger" carFollowModel="IDM">
			<param key="myCustomParameter" value="3.329"/>
		</vType>
		<vType id="car109" tau="0.695" sigma="0.855" length="4.919" accel="2.175" decel="4.166" emergencyDecel="9.455" maxSpeed="49.735" vClass="passenger" carFollowModel="IDM">
			<param key="myCustomParameter" value="6.937"/>
		</vType>
		<vType id="car110" tau="0.562" sigma="0.546" length="5.097" accel="1.867" decel="3.873" emergencyDecel="8.767" maxSpeed="48.372" vClass="passenger" carFollowModel="IDM">
			<param key="myCustomParameter" value="2.956"/>
		</vType>
		<vType id="car111" tau="0.751" sigma="0.568" length="5.044" accel="2.167" decel="4.277" emergencyDecel="8.991" maxSpeed="48.645" vClass="passenger" carFollowModel="IDM">
			<param key="myCustomParameter" value="4.550"/>
		</vType>
		<vType id="car112" tau="0.804" sigma="0.737" length="5.130" accel="2.297" decel="3.958" emergencyDecel="8.948" maxSpeed="50.151" vClass="passenger" carFollowModel="IDM">
			<param key="myCustomParameter" value="4.694"/>
		</vType>
		<vType id="car113" tau="0.569" sigma="0.368" length="4.944" accel="1.831" decel="4.180" emergencyDecel="9.075" maxSpeed="50.612" vClass="passenger" carFollowModel="IDM">
			<param key="myCustomParameter" value="7.045"/>
		</vType>
		<vType id="car114" tau="0.835" sigma="0.043" length="4.710" accel="1.991" decel="3.706" emergencyDecel="8.969" maxSpeed="47.613" vClass="passenger" carFollowModel="IDM">
			<param key="myCustomParameter" value="5.882"/>
		</vType>
		<vType id="car115" tau="0.531" sigma="0.600" length="4.911" accel="2.092" decel="4.205" emergencyDecel="8.797" maxSpeed="54.571" vClass="passenger" carFollowModel="IDM">
			<param key="myCustomParameter" value="7.110"/>
		</vType>
		<vType id="car116" tau="0.763" sigma="0.416" length="4.946" accel="2.167" decel="4.078" emergencyDecel="9.012" maxSpeed="51.207" vClass="passenger" carFollowModel="IDM">
			<param key="myCustomParameter" value="8.088"/>
		</vType>
		<vType id="car117" tau="0.667" sigma="0.568" length="5.187" accel="1.854" decel="3.799" emergencyDecel="9.201" maxSpeed="50.884" vClass="passenger" carFollowModel="IDM">
			<param key="myCustomParameter" value="4.027"/>
		</vType>
		<vType id="car118" tau="0.645" sigma="0.555" length="4.767" accel="2.020" decel="4.278" emergencyDecel="9.067" maxSpeed="52.524" vClass="passenger" carFollowModel="IDM">
			<param key="myCustomParameter" value="2.490"/>
		</vType>
		<vType id="car119" tau="0.780" sigma="0.247" length="4.994" accel="2.239" decel="4.036" emergencyDecel="9.091" maxSpeed="51.447" vClass="passenger" carFollowModel="IDM">
			<param key="myCustomParameter" value="5.285"/>
		</vType>
		<vType id="car120" tau="0.788" sigma="0.500" length="4.839" accel="2.099" decel="4.003" emergencyDecel="9.165" maxSpeed="49.843" vClass="passenger" carFollowModel="IDM">
			<param key="myCustomParameter" value="7.743"/>
		</vType>
		<vType id="car121" tau="0.780" sigma="0.397" length="4.815" accel="1.912" decel="4.168" emergencyDecel="8.983" maxSpeed="51.759" vClass="passenger" carFollowModel="IDM">
			<param key="myCustomParameter" value="5.184"/>
		</vType>
		<vType id="car122" tau="0.682" sigma="0.322" length="4.870" accel="1.990" decel="4.118" emergencyDecel="8.713" maxSpeed="48.598" vClass="passenger" carFollowModel="IDM">
			<param key="myCustomParameter" value="8.574"/>
		</vType>
		<vType id="car123" tau="0.844" sigma="0.513" length="4.897" accel="2.284" decel="4.110" emergencyDecel="9.041" maxSpeed="48.803" vClass="passenger" carFollowModel="IDM">
			<param key="myCustomParameter" value="8.449"/>
		</vType>
		<vType id="car124" tau="0.859" sigma="0.415" length="4.436" accel="2.034" decel="3.784" emergencyDecel="8.931" maxSpeed="49.105" vClass="passenger" carFollowModel="IDM">
			<param key="myCustomParameter" value="3.452"/>
		</vType>
		<vType id="car125" tau="0.984" sigma="0.570" length="5.071" accel="1.813" decel="3.898" emergencyDecel="9.082" maxSpeed="49.401" vClass="passenger" carFollowModel="IDM">
			<param key="myCustomParameter" value="6.135"/>
		</vType>
		<vType id="car126" tau="0.767" sigma="0.381" length="5.019" accel="2.248" decel="4.169" emergencyDecel="8.709" maxSpeed="47.327" vClass="passenger" carFollowModel="IDM">
			<param key="myCustomParameter" value="6.824"/>
		</vType>
		<vType id="car127" tau="0.729" sigma="0.351" length="4.954" accel="1.880" decel="4.019" emergencyDecel="8.912" maxSpeed="50.240" vClass="passenger" carFollowModel="IDM">
			<param key="myCustomParameter" value="3.939"/>
		</vType>